1

   Abaqus 2021                                  Date 02-1ÔÂ-2025   Time 09:55:18
   For use by Supplied by Team-SolidSQUAD under license from Dassault Systemes or its subsidiary.

  STEP1                                                                          
  1:  INFLATION                                                                  
 STEP    1     INCREMENT     1     STEP TIME    0.00    


                        S T E P       1     S T A T I C   A N A L Y S I S


           1:  INFLATION                                                                  

     AUTOMATIC TIME CONTROL WITH -
          A SUGGESTED INITIAL TIME INCREMENT OF                0.250    
          AND A TOTAL TIME PERIOD OF                            1.00    
          THE MINIMUM TIME INCREMENT ALLOWED IS                1.000E-05
          THE MAXIMUM TIME INCREMENT ALLOWED IS                 1.00    

     LINEAR EQUATION SOLVER TYPE         DIRECT SPARSE

 CONVERGENCE TOLERANCE PARAMETERS FOR FORCE    
     CRITERION FOR RESIDUAL FORCE     FOR A NONLINEAR PROBLEM          5.000E-03
     CRITERION FOR DISP.    CORRECTION IN A NONLINEAR PROBLEM          1.000E-02
     INITIAL VALUE OF TIME AVERAGE FORCE                               1.000E-02
     AVERAGE FORCE     IS TIME AVERAGE FORCE    
     ALTERNATE CRIT. FOR RESIDUAL FORCE     FOR A NONLINEAR PROBLEM    2.000E-02
     CRITERION FOR ZERO FORCE     RELATIVE TO TIME AVRG. FORCE         1.000E-05
     CRITERION FOR RESIDUAL FORCE     WHEN THERE IS ZERO FLUX          1.000E-05
     CRITERION FOR DISP.    CORRECTION WHEN THERE IS ZERO FLUX         1.000E-03
     CRITERION FOR RESIDUAL FORCE     FOR A LINEAR INCREMENT           1.000E-08
     FIELD CONVERSION RATIO                                             1.00    
     CRITERION FOR ZERO FORCE     REL. TO TIME AVRG. MAX. FORCE        1.000E-05
     CRITERION FOR ZERO DISP.    RELATIVE TO CHARACTERISTIC LENGTH     1.000E-08

 CONVERGENCE TOLERANCE PARAMETERS FOR MOMENT   
     CRITERION FOR RESIDUAL MOMENT    FOR A NONLINEAR PROBLEM          5.000E-03
     CRITERION FOR ROTATION CORRECTION IN A NONLINEAR PROBLEM          1.000E-02
     INITIAL VALUE OF TIME AVERAGE MOMENT                              1.000E-02
     AVERAGE MOMENT    IS TIME AVERAGE MOMENT   
     ALTERNATE CRIT. FOR RESIDUAL MOMENT    FOR A NONLINEAR PROBLEM    2.000E-02
     CRITERION FOR ZERO MOMENT    RELATIVE TO TIME AVRG. MOMENT        1.000E-05
     CRITERION FOR RESIDUAL MOMENT    WHEN THERE IS ZERO FLUX          1.000E-05
     CRITERION FOR ROTATION CORRECTION WHEN THERE IS ZERO FLUX         1.000E-03
     CRITERION FOR RESIDUAL MOMENT    FOR A LINEAR INCREMENT           1.000E-08
     FIELD CONVERSION RATIO                                             1.00    
     CRITERION FOR ZERO MOMENT    REL. TO TIME AVRG. MAX. MOMENT       1.000E-05

     VOLUMETRIC STRAIN COMPATIBILITY TOLERANCE FOR HYBRID SOLIDS       1.000E-05
     AXIAL STRAIN COMPATIBILITY TOLERANCE FOR HYBRID BEAMS             1.000E-05
     TRANS. SHEAR STRAIN COMPATIBILITY TOLERANCE FOR HYBRID BEAMS      1.000E-05
     SOFT CONTACT CONSTRAINT COMPATIBILITY TOLERANCE FOR P>P0          5.000E-03
     SOFT CONTACT CONSTRAINT COMPATIBILITY TOLERANCE FOR P=0.0         0.100    
     CONTACT FORCE ERROR TOLERANCE FOR CONVERT SDI=YES                 1.00    
     DISPLACEMENT COMPATIBILITY TOLERANCE FOR DCOUP ELEMENTS           1.000E-05
     ROTATION COMPATIBILITY TOLERANCE FOR DCOUP ELEMENTS               1.000E-05

 EQUILIBRIUM WILL BE CHECKED FOR SEVERE DISCONTINUITY ITERATIONS

 TIME INCREMENTATION CONTROL PARAMETERS:
     FIRST EQUILIBRIUM ITERATION FOR CONSECUTIVE DIVERGENCE CHECK              4
     EQUILIBRIUM ITERATION AT WHICH LOG. CONVERGENCE RATE CHECK BEGINS         8
     EQUILIBRIUM ITERATION AFTER WHICH ALTERNATE RESIDUAL IS USED              9
     MAXIMUM EQUILIBRIUM ITERATIONS ALLOWED                                   16
     EQUILIBRIUM ITERATION COUNT FOR CUT-BACK IN NEXT INCREMENT               10
     MAXIMUM EQUILIB. ITERS IN TWO INCREMENTS FOR TIME INCREMENT INCREASE      4
     MAXIMUM ITERATIONS FOR SEVERE DISCONTINUITIES                            50
     MAXIMUM ATTEMPTS ALLOWED IN AN INCREMENT                                  5
     MAXIMUM DISCON. ITERS IN TWO INCREMENTS FOR TIME INCREMENT INCREASE      50
     MAXIMUM CONTACT AUGMENTATIONS FOR *SURFACE BEHAVIOR,AUGMENTED LAGRANGE   50
     CUT-BACK FACTOR AFTER DIVERGENCE                                 0.2500    
     CUT-BACK FACTOR FOR TOO SLOW CONVERGENCE                         0.5000    
     CUT-BACK FACTOR AFTER TOO MANY EQUILIBRIUM ITERATIONS            0.7500    
     CUT-BACK FACTOR AFTER TOO MANY SEVERE DISCONTINUITY ITERATIONS   0.2500    
     CUT-BACK FACTOR AFTER PROBLEMS IN ELEMENT ASSEMBLY               0.2500    
     INCREASE FACTOR AFTER TWO INCREMENTS THAT CONVERGE QUICKLY        1.500    
     MAX. TIME INCREMENT INCREASE FACTOR ALLOWED                       1.500    
     MAX. TIME INCREMENT INCREASE FACTOR ALLOWED (DYNAMICS)            1.250    
     MAX. TIME INCREMENT INCREASE FACTOR ALLOWED (DIFFUSION)           2.000    
     MINIMUM TIME INCREMENT RATIO FOR EXTRAPOLATION TO OCCUR          0.1000    
     MAX. RATIO OF TIME INCREMENT TO STABILITY LIMIT                   1.000    
     FRACTION OF STABILITY LIMIT FOR NEW TIME INCREMENT               0.9500    
     TIME INCREMENT INCREASE FACTOR BEFORE A TIME POINT                1.000    
     GLOBAL STABILIZATION CONTROL IS NOT USED

          PRINT OF INCREMENT NUMBER, TIME, ETC., EVERY    1  INCREMENTS

     RESTART FILE WILL BE WRITTEN EVERY   100  INCREMENTS

     THE MAXIMUM NUMBER OF INCREMENTS IN THIS STEP IS                     100

          LARGE DISPLACEMENT THEORY WILL BE USED

     LINEAR EXTRAPOLATION WILL BE USED

     CHARACTERISTIC ELEMENT LENGTH      15.0    

     DETAILS REGARDING ACTUAL SOLUTION WAVEFRONT REQUESTED

     DETAILED OUTPUT OF DIAGNOSTICS TO DATABASE REQUESTED

     PRINT OF INCREMENT NUMBER, TIME, ETC., TO THE MESSAGE FILE EVERY     1  INCREMENTS

     ELEMENT OPERATIONS WILL BE CARRIED OUT IN PARALLEL USING   4 PROCESSORS

     PARALLEL CONTACT TRACKING ENABLED


     COLLECTING MODEL CONSTRAINT INFORMATION FOR OVERCONSTRAINT CHECKS

     COLLECTING STEP CONSTRAINT INFORMATION FOR OVERCONSTRAINT CHECKS


  INCREMENT     1 STARTS. ATTEMPT NUMBER  1, TIME INCREMENT  0.250    
 
     INITIAL ELEMENT LOAD BALANCE
            PROCESS    1   THREAD     NUMBER OF ELEMENTS
                              1            29
                              2            29
                              3            29
                              4            29

  NUMBER OF EQUATIONS =       206     NUMBER OF RHS =    1
  NUMBER OF FLOATING PT. OPERATIONS =  1.34E+05

  USING THE DIRECT SOLVER WITH   4 PROCESSORS

     CHECK POINT   START OF SOLVER    

     CHECK POINT  END OF SOLVER       

       ELAPSED USER TIME (SEC)      =   0.0000    
       ELAPSED SYSTEM TIME (SEC)    =   0.0000    
       ELAPSED TOTAL CPU TIME (SEC) =   0.0000    
       ELAPSED WALLCLOCK TIME (SEC) =          0

               CONVERGENCE CHECKS FOR EQUILIBRIUM ITERATION     1


 AVERAGE FORCE                       483.       TIME AVG. FORCE        483.    
 LARGEST RESIDUAL FORCE             -19.4       AT NODE        260   DOF  2
 LARGEST INCREMENT OF DISP.         0.182       AT NODE        202   DOF  2
 LARGEST CORRECTION TO DISP.        0.182       AT NODE        202   DOF  2
          FORCE     EQUILIBRIUM NOT ACHIEVED WITHIN TOLERANCE.

 AVERAGE MOMENT                     8.030E+04   TIME AVG. MOMENT      8.030E+04
 LARGEST RESIDUAL MOMENT             587.       AT NODE        260   DOF  5
 LARGEST INCREMENT OF ROTATION      2.864E-05   AT NODE        192   DOF  5
 LARGEST CORRECTION TO ROTATION     2.864E-05   AT NODE        192   DOF  5
          MOMENT    EQUILIBRIUM NOT ACHIEVED WITHIN TOLERANCE.

 COMPATIBILITY ERRORS:
    TYPE                NUMBER EXCEEDING TOLERANCE  MAXIMUM ERROR        IN ELEMENT
 VOLUMETRIC                         12               -2.646E-05                 88

  NUMBER OF EQUATIONS =       206     NUMBER OF RHS =    1
  NUMBER OF FLOATING PT. OPERATIONS =  1.34E+05

  USING THE DIRECT SOLVER WITH   4 PROCESSORS

     CHECK POINT   START OF SOLVER    

     CHECK POINT  END OF SOLVER       

       ELAPSED USER TIME (SEC)      =  0.10000    
       ELAPSED SYSTEM TIME (SEC)    =   0.0000    
       ELAPSED TOTAL CPU TIME (SEC) =  0.10000    
       ELAPSED WALLCLOCK TIME (SEC) =          0

               CONVERGENCE CHECKS FOR EQUILIBRIUM ITERATION     2


 AVERAGE FORCE                       437.       TIME AVG. FORCE        437.    
 LARGEST RESIDUAL FORCE             3.635E-02   AT NODE        188   DOF  1
 LARGEST INCREMENT OF DISP.         0.178       AT NODE        202   DOF  2
 LARGEST CORRECTION TO DISP.        4.559E-03   AT NODE        262   DOF  2
 ESTIMATE OF DISP.    CORRECTION   -8.536E-06
 FORCE     EQUILIB. ACCEPTED BASED ON SMALL RESIDUAL AND ESTIMATED CORRECTION

 AVERAGE MOMENT                     8.071E+04   TIME AVG. MOMENT      8.071E+04
 LARGEST RESIDUAL MOMENT           -0.972       AT NODE        260   DOF  5
 LARGEST INCREMENT OF ROTATION      2.921E-05   AT NODE        192   DOF  5
 LARGEST CORRECTION TO ROTATION     8.350E-07   AT NODE        204   DOF  5
 ESTIMATE OF ROTATION CORRECTION   -1.383E-09
 MOMENT    EQUILIB. ACCEPTED BASED ON SMALL RESIDUAL AND ESTIMATED CORRECTION

 COMPATIBILITY ERRORS:
    TYPE                NUMBER EXCEEDING TOLERANCE  MAXIMUM ERROR        IN ELEMENT
 VOLUMETRIC                          0               -1.067E-08                 88


  COMPUTING NEW MESH IN ADAPTIVE MESH DOMAIN:  AIR                                                                             
     LOAD TRANSFER     MESH SWEEP     LARGEST DISP.        AT NODE     DOF
       INCREMENT                        INCREMENT
           1                 1         5.57983E-02            244       2       
           1                 2         1.95714E-02            235       1       
           1                 3         1.20514E-02            244       2       
           1                 4         9.36575E-03            241       1       
           1                 5         8.47043E-03            234       1       
           1                 6         6.77639E-03            233       1       
           1                 7         6.23197E-03            234       1       
           1                 8         5.09987E-03            233       1       
           1                 9         4.43729E-03            234       1       
           1                10         3.67080E-03            233       1       

  MESH SMOOTHING SUMMARY:
     TOTAL OF   1 LOAD INCREMENTS AND   10 MESH SWEEPS
     LARGEST DISPLACEMENT    9.93570E-02 AT NODE        244 DOF  2


 ITERATION SUMMARY FOR THE INCREMENT:   2 TOTAL ITERATIONS, OF WHICH
   0 ARE SEVERE DISCONTINUITY ITERATIONS AND  2 ARE EQUILIBRIUM ITERATIONS.

 TIME INCREMENT COMPLETED  0.250    ,  FRACTION OF STEP COMPLETED  0.250    
 STEP TIME COMPLETED       0.250    ,  TOTAL TIME COMPLETED        0.250    


  INCREMENT     2 STARTS. ATTEMPT NUMBER  1, TIME INCREMENT  0.250    

  NUMBER OF EQUATIONS =       206     NUMBER OF RHS =    1
  NUMBER OF FLOATING PT. OPERATIONS =  1.34E+05

  USING THE DIRECT SOLVER WITH   4 PROCESSORS

     CHECK POINT   START OF SOLVER    

     CHECK POINT  END OF SOLVER       

       ELAPSED USER TIME (SEC)      =   0.0000    
       ELAPSED SYSTEM TIME (SEC)    =   0.0000    
       ELAPSED TOTAL CPU TIME (SEC) =   0.0000    
       ELAPSED WALLCLOCK TIME (SEC) =          0

               CONVERGENCE CHECKS FOR EQUILIBRIUM ITERATION     1


 AVERAGE FORCE                      1.179E+03   TIME AVG. FORCE        808.    
 LARGEST RESIDUAL FORCE             -1.02       AT NODE        257   DOF  2
 LARGEST INCREMENT OF DISP.         0.178       AT NODE        237   DOF  2
 LARGEST CORRECTION TO DISP.       -6.678E-02   AT NODE        229   DOF  2
          DISP.    CORRECTION TOO LARGE COMPARED TO DISP.    INCREMENT

 AVERAGE MOMENT                     1.730E+05   TIME AVG. MOMENT      1.269E+05
 LARGEST RESIDUAL MOMENT            -25.7       AT NODE        272   DOF  5
 LARGEST INCREMENT OF ROTATION     -3.076E-05   AT NODE        260   DOF  5
 LARGEST CORRECTION TO ROTATION    -1.592E-06   AT NODE        197   DOF  5
 ESTIMATE OF ROTATION CORRECTION   -3.391E-08
 MOMENT    EQUILIB. ACCEPTED BASED ON SMALL RESIDUAL AND ESTIMATED CORRECTION

 COMPATIBILITY ERRORS:
    TYPE                NUMBER EXCEEDING TOLERANCE  MAXIMUM ERROR        IN ELEMENT
 VOLUMETRIC                          0               -5.978E-08                 48

  NUMBER OF EQUATIONS =       206     NUMBER OF RHS =    1
  NUMBER OF FLOATING PT. OPERATIONS =  1.34E+05

  USING THE DIRECT SOLVER WITH   4 PROCESSORS

     CHECK POINT   START OF SOLVER    

     CHECK POINT  END OF SOLVER       

       ELAPSED USER TIME (SEC)      =   0.0000    
       ELAPSED SYSTEM TIME (SEC)    =   0.0000    
       ELAPSED TOTAL CPU TIME (SEC) =   0.0000    
       ELAPSED WALLCLOCK TIME (SEC) =          0

               CONVERGENCE CHECKS FOR EQUILIBRIUM ITERATION     2


 AVERAGE FORCE                      1.263E+03   TIME AVG. FORCE        850.    
 LARGEST RESIDUAL FORCE             5.149E-03   AT NODE        266   DOF  2
 LARGEST INCREMENT OF DISP.         0.178       AT NODE        237   DOF  2
 LARGEST CORRECTION TO DISP.        5.441E-04   AT NODE        194   DOF  2
          THE FORCE     EQUILIBRIUM EQUATIONS HAVE CONVERGED

 AVERAGE MOMENT                     1.730E+05   TIME AVG. MOMENT      1.268E+05
 LARGEST RESIDUAL MOMENT           -2.246E-02   AT NODE        260   DOF  5
 LARGEST INCREMENT OF ROTATION     -3.068E-05   AT NODE        260   DOF  5
 LARGEST CORRECTION TO ROTATION    -8.517E-08   AT NODE        264   DOF  5
          THE MOMENT    EQUILIBRIUM EQUATIONS HAVE CONVERGED

 COMPATIBILITY ERRORS:
    TYPE                NUMBER EXCEEDING TOLERANCE  MAXIMUM ERROR        IN ELEMENT
 VOLUMETRIC                          0               -1.423E-10                 56


  COMPUTING NEW MESH IN ADAPTIVE MESH DOMAIN:  AIR                                                                             
     LOAD TRANSFER     MESH SWEEP     LARGEST DISP.        AT NODE     DOF
       INCREMENT                        INCREMENT
           1                 1         5.01274E-02            229       2       
           1                 2         2.50637E-02            230       2       
           1                 3         1.25313E-02            229       2       
           1                 4        -6.26272E-03            282       2       
           1                 5         3.62544E-03            238       2       
           1                 6         2.68267E-03            233       1       
           1                 7         2.29196E-03            234       1       
           1                 8         1.90340E-03            233       1       
           1                 9         1.61780E-03            234       1       
           1                10         1.34679E-03            233       1       

  MESH SMOOTHING SUMMARY:
     TOTAL OF   1 LOAD INCREMENTS AND   10 MESH SWEEPS
     LARGEST DISPLACEMENT    6.67708E-02 AT NODE        229 DOF  2

          TIME INCREMENT MAY NOW INCREASE TO    0.375    

 ITERATION SUMMARY FOR THE INCREMENT:   2 TOTAL ITERATIONS, OF WHICH
   0 ARE SEVERE DISCONTINUITY ITERATIONS AND  2 ARE EQUILIBRIUM ITERATIONS.

 TIME INCREMENT COMPLETED  0.250    ,  FRACTION OF STEP COMPLETED  0.500    
 STEP TIME COMPLETED       0.500    ,  TOTAL TIME COMPLETED        0.500    


  INCREMENT     3 STARTS. ATTEMPT NUMBER  1, TIME INCREMENT  0.375    

  NUMBER OF EQUATIONS =       206     NUMBER OF RHS =    1
  NUMBER OF FLOATING PT. OPERATIONS =  1.34E+05

  USING THE DIRECT SOLVER WITH   4 PROCESSORS

     CHECK POINT   START OF SOLVER    

     CHECK POINT  END OF SOLVER       

       ELAPSED USER TIME (SEC)      =   0.0000    
       ELAPSED SYSTEM TIME (SEC)    =  0.10000    
       ELAPSED TOTAL CPU TIME (SEC) =  0.10000    
       ELAPSED WALLCLOCK TIME (SEC) =          0

               CONVERGENCE CHECKS FOR EQUILIBRIUM ITERATION     1


 AVERAGE FORCE                      2.055E+03   TIME AVG. FORCE       1.252E+03
 LARGEST RESIDUAL FORCE             -2.29       AT NODE        257   DOF  2
 LARGEST INCREMENT OF DISP.         0.252       AT NODE        237   DOF  2
 LARGEST CORRECTION TO DISP.       -0.117       AT NODE        229   DOF  2
          DISP.    CORRECTION TOO LARGE COMPARED TO DISP.    INCREMENT

 AVERAGE MOMENT                     3.030E+05   TIME AVG. MOMENT      1.855E+05
 LARGEST RESIDUAL MOMENT             58.9       AT NODE        206   DOF  5
 LARGEST INCREMENT OF ROTATION      4.845E-05   AT NODE        192   DOF  5
 LARGEST CORRECTION TO ROTATION     2.877E-06   AT NODE        204   DOF  5
 ESTIMATE OF ROTATION CORRECTION    7.082E-08
 MOMENT    EQUILIB. ACCEPTED BASED ON SMALL RESIDUAL AND ESTIMATED CORRECTION

 COMPATIBILITY ERRORS:
    TYPE                NUMBER EXCEEDING TOLERANCE  MAXIMUM ERROR        IN ELEMENT
 VOLUMETRIC                          0               -1.430E-07                 56

  NUMBER OF EQUATIONS =       206     NUMBER OF RHS =    1
  NUMBER OF FLOATING PT. OPERATIONS =  1.34E+05

  USING THE DIRECT SOLVER WITH   4 PROCESSORS

     CHECK POINT   START OF SOLVER    

     CHECK POINT  END OF SOLVER       

       ELAPSED USER TIME (SEC)      =   0.0000    
       ELAPSED SYSTEM TIME (SEC)    =   0.0000    
       ELAPSED TOTAL CPU TIME (SEC) =   0.0000    
       ELAPSED WALLCLOCK TIME (SEC) =          0

               CONVERGENCE CHECKS FOR EQUILIBRIUM ITERATION     2


 AVERAGE FORCE                      2.176E+03   TIME AVG. FORCE       1.292E+03
 LARGEST RESIDUAL FORCE            -1.915E-02   AT NODE        200   DOF  2
 LARGEST INCREMENT OF DISP.         0.252       AT NODE        237   DOF  2
 LARGEST CORRECTION TO DISP.       -1.117E-03   AT NODE        262   DOF  2
          THE FORCE     EQUILIBRIUM EQUATIONS HAVE CONVERGED

 AVERAGE MOMENT                     3.029E+05   TIME AVG. MOMENT      1.855E+05
 LARGEST RESIDUAL MOMENT           -0.100       AT NODE        260   DOF  5
 LARGEST INCREMENT OF ROTATION      4.828E-05   AT NODE        192   DOF  5
 LARGEST CORRECTION TO ROTATION     1.853E-07   AT NODE        197   DOF  5
          THE MOMENT    EQUILIBRIUM EQUATIONS HAVE CONVERGED

 COMPATIBILITY ERRORS:
    TYPE                NUMBER EXCEEDING TOLERANCE  MAXIMUM ERROR        IN ELEMENT
 VOLUMETRIC                          0               -6.279E-10                 56


  COMPUTING NEW MESH IN ADAPTIVE MESH DOMAIN:  AIR                                                                             
     LOAD TRANSFER     MESH SWEEP     LARGEST DISP.        AT NODE     DOF
       INCREMENT                        INCREMENT
           1                 1         8.78799E-02            229       2       
           1                 2         4.39399E-02            230       2       
           1                 3         2.19671E-02            229       2       
           1                 4        -1.09784E-02            282       2       
           1                 5         6.05086E-03            238       2       
           1                 6         3.28202E-03            240       2       
           1                 7        -2.12938E-03            284       2       
           1                 8        -1.13957E-03            286       2       
           1                 9        -7.44641E-04            284       2       
           1                10        -4.81302E-04            285       2       

  MESH SMOOTHING SUMMARY:
     TOTAL OF   1 LOAD INCREMENTS AND   10 MESH SWEEPS
     LARGEST DISPLACEMENT    0.11707     AT NODE        229 DOF  2


 ITERATION SUMMARY FOR THE INCREMENT:   2 TOTAL ITERATIONS, OF WHICH
   0 ARE SEVERE DISCONTINUITY ITERATIONS AND  2 ARE EQUILIBRIUM ITERATIONS.

 TIME INCREMENT COMPLETED  0.375    ,  FRACTION OF STEP COMPLETED  0.875    
 STEP TIME COMPLETED       0.875    ,  TOTAL TIME COMPLETED        0.875    


  INCREMENT     4 STARTS. ATTEMPT NUMBER  1, TIME INCREMENT  0.125    

  NUMBER OF EQUATIONS =       206     NUMBER OF RHS =    1
  NUMBER OF FLOATING PT. OPERATIONS =  1.34E+05

  USING THE DIRECT SOLVER WITH   4 PROCESSORS

     CHECK POINT   START OF SOLVER    

     CHECK POINT  END OF SOLVER       

       ELAPSED USER TIME (SEC)      =   0.0000    
       ELAPSED SYSTEM TIME (SEC)    =   0.0000    
       ELAPSED TOTAL CPU TIME (SEC) =   0.0000    
       ELAPSED WALLCLOCK TIME (SEC) =          0

               CONVERGENCE CHECKS FOR EQUILIBRIUM ITERATION     1


 AVERAGE FORCE                      2.424E+03   TIME AVG. FORCE       1.575E+03
 LARGEST RESIDUAL FORCE             0.164       AT NODE        189   DOF  2
 LARGEST INCREMENT OF DISP.        -0.117       AT NODE        229   DOF  2
 LARGEST CORRECTION TO DISP.       -0.134       AT NODE        229   DOF  2
          DISP.    CORRECTION TOO LARGE COMPARED TO DISP.    INCREMENT

 AVERAGE MOMENT                     3.474E+05   TIME AVG. MOMENT      2.260E+05
 LARGEST RESIDUAL MOMENT            -4.11       AT NODE        272   DOF  5
 LARGEST INCREMENT OF ROTATION      1.662E-05   AT NODE        192   DOF  5
 LARGEST CORRECTION TO ROTATION    -7.367E-07   AT NODE        270   DOF  5
 ESTIMATE OF ROTATION CORRECTION   -4.629E-09
 MOMENT    EQUILIB. ACCEPTED BASED ON SMALL RESIDUAL AND ESTIMATED CORRECTION

 COMPATIBILITY ERRORS:
    TYPE                NUMBER EXCEEDING TOLERANCE  MAXIMUM ERROR        IN ELEMENT
 VOLUMETRIC                          0               -6.582E-09                 56

  NUMBER OF EQUATIONS =       206     NUMBER OF RHS =    1
  NUMBER OF FLOATING PT. OPERATIONS =  1.34E+05

  USING THE DIRECT SOLVER WITH   4 PROCESSORS

     CHECK POINT   START OF SOLVER    

     CHECK POINT  END OF SOLVER       

       ELAPSED USER TIME (SEC)      =   0.0000    
       ELAPSED SYSTEM TIME (SEC)    =   0.0000    
       ELAPSED TOTAL CPU TIME (SEC) =   0.0000    
       ELAPSED WALLCLOCK TIME (SEC) =          0

               CONVERGENCE CHECKS FOR EQUILIBRIUM ITERATION     2


 AVERAGE FORCE                      2.525E+03   TIME AVG. FORCE       1.600E+03
 LARGEST RESIDUAL FORCE             1.458E-03   AT NODE        266   DOF  2
 LARGEST INCREMENT OF DISP.        -0.117       AT NODE        229   DOF  2
 LARGEST CORRECTION TO DISP.        7.499E-05   AT NODE        194   DOF  2
          THE FORCE     EQUILIBRIUM EQUATIONS HAVE CONVERGED

 AVERAGE MOMENT                     3.474E+05   TIME AVG. MOMENT      2.260E+05
 LARGEST RESIDUAL MOMENT            4.661E-04   AT NODE        192   DOF  5
 LARGEST INCREMENT OF ROTATION     -1.661E-05   AT NODE        260   DOF  5
 LARGEST CORRECTION TO ROTATION    -1.306E-08   AT NODE        264   DOF  5
          THE MOMENT    EQUILIBRIUM EQUATIONS HAVE CONVERGED

 COMPATIBILITY ERRORS:
    TYPE                NUMBER EXCEEDING TOLERANCE  MAXIMUM ERROR        IN ELEMENT
 VOLUMETRIC                          0               -2.905E-12                 48


  COMPUTING NEW MESH IN ADAPTIVE MESH DOMAIN:  AIR                                                                             
     LOAD TRANSFER     MESH SWEEP     LARGEST DISP.        AT NODE     DOF
       INCREMENT                        INCREMENT
           1                 1         0.10054                229       2       
           1                 2         5.02683E-02            230       2       
           1                 3         2.51299E-02            229       2       
           1                 4        -1.25591E-02            282       2       
           1                 5         7.10823E-03            238       2       
           1                 6         3.90811E-03            240       2       
           1                 7        -2.52663E-03            284       2       
           1                 8        -1.37666E-03            286       2       
           1                 9        -9.38747E-04            288       2       
           1                10        -6.02245E-04            285       2       

  MESH SMOOTHING SUMMARY:
     TOTAL OF   1 LOAD INCREMENTS AND   10 MESH SWEEPS
     LARGEST DISPLACEMENT    0.13393     AT NODE        229 DOF  2


 ITERATION SUMMARY FOR THE INCREMENT:   2 TOTAL ITERATIONS, OF WHICH
   0 ARE SEVERE DISCONTINUITY ITERATIONS AND  2 ARE EQUILIBRIUM ITERATIONS.

 TIME INCREMENT COMPLETED  0.125    ,  FRACTION OF STEP COMPLETED   1.00    
 STEP TIME COMPLETED        1.00    ,  TOTAL TIME COMPLETED         1.00    

     RESTART INFORMATION WRITTEN IN STEP   1  AFTER INCREMENT     4


          THE ANALYSIS HAS BEEN COMPLETED



     ANALYSIS SUMMARY:
     TOTAL OF          4  INCREMENTS
                       0  CUTBACKS IN AUTOMATIC INCREMENTATION
                       8  ITERATIONS INCLUDING CONTACT ITERATIONS IF PRESENT
                       8  PASSES THROUGH THE EQUATION SOLVER OF WHICH 
                       8  INVOLVE MATRIX DECOMPOSITION, INCLUDING
                       0  DECOMPOSITION(S) OF THE MASS MATRIX
                       1  REORDERING OF EQUATIONS TO MINIMIZE WAVEFRONT
                       0  ADDITIONAL RESIDUAL EVALUATIONS FOR LINE SEARCHES
                       0  ADDITIONAL OPERATOR EVALUATIONS FOR LINE SEARCHES
                      16  WARNING MESSAGES DURING USER INPUT PROCESSING
                       0  WARNING MESSAGES DURING ANALYSIS
                       0  ANALYSIS WARNINGS ARE NUMERICAL PROBLEM MESSAGES
                       0  ANALYSIS WARNINGS ARE NEGATIVE EIGENVALUE MESSAGES
                       0  ERROR MESSAGES



     JOB TIME SUMMARY
       USER TIME (SEC)      =  0.70000    
       SYSTEM TIME (SEC)    =  0.40000    
       TOTAL CPU TIME (SEC) =   1.1000    
       WALLCLOCK TIME (SEC) =          2
