 Abaqus/Standard 2021                  DATE 30-4ÔÂ-2025 TIME 15:12:10
 SUMMARY OF JOB INFORMATION:
 STEP  INC ATT SEVERE EQUIL TOTAL  TOTAL      STEP       INC OF       DOF    IF
               DISCON ITERS ITERS  TIME/    TIME/LPF    TIME/LPF    MONITOR RIKS
               ITERS               FREQ
   1     1   1     0     2     2  1.00       1.00       1.000     
   2     1   1     2     1     3  1.50       0.500      0.5000    
   2     2   1     2     2     4  2.00       1.00       0.5000    
   3     1   1     3     2     5  2.20       0.200      0.2000    
   3     2   1     3     3     6  2.40       0.400      0.2000    
   3     3   1     2     2     4  2.70       0.700      0.3000    
   3     4   1     2     3     5  3.00       1.00       0.3000    
                          
 THE ANALYSIS HAS COMPLETED SUCCESSFULLY
