1

   Abaqus 2021                                  Date 30-4ÔÂ-2025   Time 15:12:09
   For use by Supplied by Team-SolidSQUAD under license from Dassault Systemes or its subsidiary.

  STEP2                                                                          
 1:  BRING TRANSFERRED RESULTS TO EQUILIBRIUM                                    
 STEP    1     INCREMENT     1     STEP TIME    0.00    


                        S T E P       1     S T A T I C   A N A L Y S I S


          1:  BRING TRANSFERRED RESULTS TO EQUILIBRIUM                                    

          FIXED TIME INCREMENTS
          TIME INCREMENT IS                                     1.00    
          TIME PERIOD IS                                        1.00    

     LINEAR EQUATION SOLVER TYPE         DIRECT SPARSE

 CONVERGENCE TOLERANCE PARAMETERS FOR FORCE    
     CRITERION FOR RESIDUAL FORCE     FOR A NONLINEAR PROBLEM          5.000E-03
     CRITERION FOR DISP.    CORRECTION IN A NONLINEAR PROBLEM          1.000E-02
     INITIAL VALUE OF TIME AVERAGE FORCE                               1.000E-02
     AVERAGE FORCE     IS TIME AVERAGE FORCE    
     ALTERNATE CRIT. FOR RESIDUAL FORCE     FOR A NONLINEAR PROBLEM    2.000E-02
     CRITERION FOR ZERO FORCE     RELATIVE TO TIME AVRG. FORCE         1.000E-05
     CRITERION FOR RESIDUAL FORCE     WHEN THERE IS ZERO FLUX          1.000E-05
     CRITERION FOR DISP.    CORRECTION WHEN THERE IS ZERO FLUX         1.000E-03
     CRITERION FOR RESIDUAL FORCE     FOR A LINEAR INCREMENT           1.000E-08
     FIELD CONVERSION RATIO                                             1.00    
     CRITERION FOR ZERO FORCE     REL. TO TIME AVRG. MAX. FORCE        1.000E-05
     CRITERION FOR ZERO DISP.    RELATIVE TO CHARACTERISTIC LENGTH     1.000E-08

 CONVERGENCE TOLERANCE PARAMETERS FOR MOMENT   
     CRITERION FOR RESIDUAL MOMENT    FOR A NONLINEAR PROBLEM          5.000E-03
     CRITERION FOR ROTATION CORRECTION IN A NONLINEAR PROBLEM          1.000E-02
     INITIAL VALUE OF TIME AVERAGE MOMENT                              1.000E-02
     AVERAGE MOMENT    IS TIME AVERAGE MOMENT   
     ALTERNATE CRIT. FOR RESIDUAL MOMENT    FOR A NONLINEAR PROBLEM    2.000E-02
     CRITERION FOR ZERO MOMENT    RELATIVE TO TIME AVRG. MOMENT        1.000E-05
     CRITERION FOR RESIDUAL MOMENT    WHEN THERE IS ZERO FLUX          1.000E-05
     CRITERION FOR ROTATION CORRECTION WHEN THERE IS ZERO FLUX         1.000E-03
     CRITERION FOR RESIDUAL MOMENT    FOR A LINEAR INCREMENT           1.000E-08
     FIELD CONVERSION RATIO                                             1.00    
     CRITERION FOR ZERO MOMENT    REL. TO TIME AVRG. MAX. MOMENT       1.000E-05

     VOLUMETRIC STRAIN COMPATIBILITY TOLERANCE FOR HYBRID SOLIDS       1.000E-05
     AXIAL STRAIN COMPATIBILITY TOLERANCE FOR HYBRID BEAMS             1.000E-05
     TRANS. SHEAR STRAIN COMPATIBILITY TOLERANCE FOR HYBRID BEAMS      1.000E-05
     SOFT CONTACT CONSTRAINT COMPATIBILITY TOLERANCE FOR P>P0          5.000E-03
     SOFT CONTACT CONSTRAINT COMPATIBILITY TOLERANCE FOR P=0.0         0.100    
     CONTACT FORCE ERROR TOLERANCE FOR CONVERT SDI=YES                 1.00    
     DISPLACEMENT COMPATIBILITY TOLERANCE FOR DCOUP ELEMENTS           1.000E-05
     ROTATION COMPATIBILITY TOLERANCE FOR DCOUP ELEMENTS               1.000E-05

 EQUILIBRIUM WILL BE CHECKED FOR SEVERE DISCONTINUITY ITERATIONS

 ITERATION CONTROL PARAMETERS:
     FIRST EQUILIBRIUM ITERATION FOR CONSECUTIVE DIVERGENCE CHECK              4
     EQUILIBRIUM ITERATION AFTER WHICH ALTERNATE RESIDUAL IS USED              9
     MAXIMUM EQUILIBRIUM ITERATIONS ALLOWED                                   16
     MAXIMUM ITERATIONS FOR SEVERE DISCONTINUITIES                            12
     GLOBAL STABILIZATION CONTROL IS NOT USED

          PRINT OF INCREMENT NUMBER, TIME, ETC., EVERY    1  INCREMENTS

     RESTART FILE WILL BE WRITTEN EVERY     1  INCREMENTS

     ONLY THE LATEST INCREMENT WILL BE RETAINED

     THE MAXIMUM NUMBER OF INCREMENTS IN THIS STEP IS                       1

          LARGE DISPLACEMENT THEORY WILL BE USED

     LINEAR EXTRAPOLATION WILL BE USED

     CHARACTERISTIC ELEMENT LENGTH      19.5    

     DETAILS REGARDING ACTUAL SOLUTION WAVEFRONT REQUESTED

     DETAILED OUTPUT OF DIAGNOSTICS TO DATABASE REQUESTED

     PRINT OF INCREMENT NUMBER, TIME, ETC., TO THE MESSAGE FILE EVERY     1  INCREMENTS

     ELEMENT OPERATIONS WILL BE CARRIED OUT IN PARALLEL USING   4 PROCESSORS

     PARALLEL CONTACT TRACKING ENABLED


     COLLECTING MODEL CONSTRAINT INFORMATION FOR OVERCONSTRAINT CHECKS

     COLLECTING STEP CONSTRAINT INFORMATION FOR OVERCONSTRAINT CHECKS


  INCREMENT     1 STARTS. ATTEMPT NUMBER  1, TIME INCREMENT   1.00    
 
     INITIAL ELEMENT LOAD BALANCE
            PROCESS    1   THREAD     NUMBER OF ELEMENTS
                              1            1956
                              2            2039
                              3            1792
                              4            1536

 ***WARNING: THERE ARE 2 UNCONNECTED REGIONS IN THE MODEL.

 ***NOTE: SFM TYPE SURFACE ELEMENTS USED TO DEFINE CONTACT SURFACES NOT PART OF 
          A RIGID BODY MAY INCREASE THE NUMBER OR UNCONNECTED REGIONS REPORTED.

  NUMBER OF EQUATIONS =     12132     NUMBER OF RHS =    1
  NUMBER OF FLOATING PT. OPERATIONS =  5.50E+08

  USING THE DIRECT SOLVER WITH   4 PROCESSORS

     CHECK POINT   START OF SOLVER    

     CHECK POINT  END OF SOLVER       

       ELAPSED USER TIME (SEC)      =  0.30000    
       ELAPSED SYSTEM TIME (SEC)    =   0.0000    
       ELAPSED TOTAL CPU TIME (SEC) =  0.30000    
       ELAPSED WALLCLOCK TIME (SEC) =          1

               CONVERGENCE CHECKS FOR EQUILIBRIUM ITERATION     1


 AVERAGE FORCE                       28.7       TIME AVG. FORCE        28.7    
 LARGEST RESIDUAL FORCE              1.44       AT NODE      41205   DOF  2
 LARGEST INCREMENT OF DISP.         0.319       AT NODE      12207   DOF  1
 LARGEST CORRECTION TO DISP.        0.319       AT NODE      12207   DOF  1
          FORCE     EQUILIBRIUM NOT ACHIEVED WITHIN TOLERANCE.

 AVERAGE MOMENT                      0.00       TIME AVG. MOMENT       558.    
                                                (FROM FORCE     FIELD)
 ALL MOMENT    RESIDUALS ARE ZERO
 LARGEST INCREMENT OF ROTATION      2.222E-18   AT NODE          1   DOF  5
 LARGEST CORRECTION TO ROTATION     2.222E-18   AT NODE          1   DOF  5
          THERE IS ZERO MOMENT    EVERYWHERE

 COMPATIBILITY ERRORS:
    TYPE                NUMBER EXCEEDING TOLERANCE  MAXIMUM ERROR        IN ELEMENT
 VOLUMETRIC                       1222               -6.408E-05              29088

  NUMBER OF EQUATIONS =     12132     NUMBER OF RHS =    1
  NUMBER OF FLOATING PT. OPERATIONS =  5.50E+08

  USING THE DIRECT SOLVER WITH   4 PROCESSORS

     CHECK POINT   START OF SOLVER    

     CHECK POINT  END OF SOLVER       

       ELAPSED USER TIME (SEC)      =  0.30000    
       ELAPSED SYSTEM TIME (SEC)    =   0.0000    
       ELAPSED TOTAL CPU TIME (SEC) =  0.30000    
       ELAPSED WALLCLOCK TIME (SEC) =          0

               CONVERGENCE CHECKS FOR EQUILIBRIUM ITERATION     2


 AVERAGE FORCE                       28.2       TIME AVG. FORCE        28.2    
 LARGEST RESIDUAL FORCE            -5.103E-03   AT NODE      41266   DOF  2
 LARGEST INCREMENT OF DISP.         0.318       AT NODE      12207   DOF  1
 LARGEST CORRECTION TO DISP.        8.896E-03   AT NODE      30268   DOF  2
 ESTIMATE OF DISP.    CORRECTION   -3.146E-05
 FORCE     EQUILIB. ACCEPTED BASED ON SMALL RESIDUAL AND ESTIMATED CORRECTION

 AVERAGE MOMENT                      0.00       TIME AVG. MOMENT       549.    
                                                (FROM FORCE     FIELD)
 ALL MOMENT    RESIDUALS ARE ZERO
 LARGEST INCREMENT OF ROTATION      2.222E-18   AT NODE          1   DOF  5
 LARGEST CORRECTION TO ROTATION     1.485E-32   AT NODE          1   DOF  4
          THERE IS ZERO MOMENT    EVERYWHERE

 COMPATIBILITY ERRORS:
    TYPE                NUMBER EXCEEDING TOLERANCE  MAXIMUM ERROR        IN ELEMENT
 VOLUMETRIC                          0               -5.396E-08              29088


  COMPUTING NEW MESH IN ADAPTIVE MESH DOMAIN:  AIR                                                                             

  MESH SMOOTHING SUMMARY:
     TOTAL OF   1 LOAD INCREMENTS AND   10 MESH SWEEPS
     LARGEST DISPLACEMENT    0.19328     AT NODE      11229 DOF  2


 ITERATION SUMMARY FOR THE INCREMENT:   2 TOTAL ITERATIONS, OF WHICH
   0 ARE SEVERE DISCONTINUITY ITERATIONS AND  2 ARE EQUILIBRIUM ITERATIONS.

 TIME INCREMENT COMPLETED   1.00    ,  FRACTION OF STEP COMPLETED   1.00    
 STEP TIME COMPLETED        1.00    ,  TOTAL TIME COMPLETED         1.00    

     RESTART INFORMATION WRITTEN IN STEP   1  AFTER INCREMENT     1
1

   Abaqus 2021                                  Date 30-4ÔÂ-2025   Time 15:12:10
   For use by Supplied by Team-SolidSQUAD under license from Dassault Systemes or its subsidiary.

  STEP2                                                                          
 2:  FOOTPRINT (Displacement controlled)                                         
 STEP    2     INCREMENT     1     STEP TIME    0.00    


                        S T E P       2     S T A T I C   A N A L Y S I S


          2:  FOOTPRINT (Displacement controlled)                                         

     AUTOMATIC TIME CONTROL WITH -
          A SUGGESTED INITIAL TIME INCREMENT OF                0.500    
          AND A TOTAL TIME PERIOD OF                            1.00    
          THE MINIMUM TIME INCREMENT ALLOWED IS                1.000E-05
          THE MAXIMUM TIME INCREMENT ALLOWED IS                 1.00    

     LINEAR EQUATION SOLVER TYPE         DIRECT SPARSE

 CONVERGENCE TOLERANCE PARAMETERS FOR FORCE    
     CRITERION FOR RESIDUAL FORCE     FOR A NONLINEAR PROBLEM          5.000E-03
     CRITERION FOR DISP.    CORRECTION IN A NONLINEAR PROBLEM          1.000E-02
     INIT. VALUE OF TIME AVG. FORCE     IS TIME AVG. FORCE     IN PREVIOUS STEP
     AVERAGE FORCE     IS TIME AVERAGE FORCE    
     ALTERNATE CRIT. FOR RESIDUAL FORCE     FOR A NONLINEAR PROBLEM    2.000E-02
     CRITERION FOR ZERO FORCE     RELATIVE TO TIME AVRG. FORCE         1.000E-05
     CRITERION FOR RESIDUAL FORCE     WHEN THERE IS ZERO FLUX          1.000E-05
     CRITERION FOR DISP.    CORRECTION WHEN THERE IS ZERO FLUX         1.000E-03
     CRITERION FOR RESIDUAL FORCE     FOR A LINEAR INCREMENT           1.000E-08
     FIELD CONVERSION RATIO                                             1.00    
     CRITERION FOR ZERO FORCE     REL. TO TIME AVRG. MAX. FORCE        1.000E-05
     CRITERION FOR ZERO DISP.    RELATIVE TO CHARACTERISTIC LENGTH     1.000E-08

 CONVERGENCE TOLERANCE PARAMETERS FOR MOMENT   
     CRITERION FOR RESIDUAL MOMENT    FOR A NONLINEAR PROBLEM          5.000E-03
     CRITERION FOR ROTATION CORRECTION IN A NONLINEAR PROBLEM          1.000E-02
     INIT. VALUE OF TIME AVG. MOMENT    IS TIME AVG. MOMENT    IN PREVIOUS STEP
     AVERAGE MOMENT    IS TIME AVERAGE MOMENT   
     ALTERNATE CRIT. FOR RESIDUAL MOMENT    FOR A NONLINEAR PROBLEM    2.000E-02
     CRITERION FOR ZERO MOMENT    RELATIVE TO TIME AVRG. MOMENT        1.000E-05
     CRITERION FOR RESIDUAL MOMENT    WHEN THERE IS ZERO FLUX          1.000E-05
     CRITERION FOR ROTATION CORRECTION WHEN THERE IS ZERO FLUX         1.000E-03
     CRITERION FOR RESIDUAL MOMENT    FOR A LINEAR INCREMENT           1.000E-08
     FIELD CONVERSION RATIO                                             1.00    
     CRITERION FOR ZERO MOMENT    REL. TO TIME AVRG. MAX. MOMENT       1.000E-05

     VOLUMETRIC STRAIN COMPATIBILITY TOLERANCE FOR HYBRID SOLIDS       1.000E-05
     AXIAL STRAIN COMPATIBILITY TOLERANCE FOR HYBRID BEAMS             1.000E-05
     TRANS. SHEAR STRAIN COMPATIBILITY TOLERANCE FOR HYBRID BEAMS      1.000E-05
     SOFT CONTACT CONSTRAINT COMPATIBILITY TOLERANCE FOR P>P0          5.000E-03
     SOFT CONTACT CONSTRAINT COMPATIBILITY TOLERANCE FOR P=0.0         0.100    
     CONTACT FORCE ERROR TOLERANCE FOR CONVERT SDI=YES                 1.00    
     DISPLACEMENT COMPATIBILITY TOLERANCE FOR DCOUP ELEMENTS           1.000E-05
     ROTATION COMPATIBILITY TOLERANCE FOR DCOUP ELEMENTS               1.000E-05

 EQUILIBRIUM WILL BE CHECKED FOR SEVERE DISCONTINUITY ITERATIONS

 TIME INCREMENTATION CONTROL PARAMETERS:
     FIRST EQUILIBRIUM ITERATION FOR CONSECUTIVE DIVERGENCE CHECK              4
     EQUILIBRIUM ITERATION AT WHICH LOG. CONVERGENCE RATE CHECK BEGINS         8
     EQUILIBRIUM ITERATION AFTER WHICH ALTERNATE RESIDUAL IS USED              9
     MAXIMUM EQUILIBRIUM ITERATIONS ALLOWED                                   16
     EQUILIBRIUM ITERATION COUNT FOR CUT-BACK IN NEXT INCREMENT               10
     MAXIMUM EQUILIB. ITERS IN TWO INCREMENTS FOR TIME INCREMENT INCREASE      4
     MAXIMUM ITERATIONS FOR SEVERE DISCONTINUITIES                            50
     MAXIMUM ATTEMPTS ALLOWED IN AN INCREMENT                                  5
     MAXIMUM DISCON. ITERS IN TWO INCREMENTS FOR TIME INCREMENT INCREASE      50
     MAXIMUM CONTACT AUGMENTATIONS FOR *SURFACE BEHAVIOR,AUGMENTED LAGRANGE   50
     CUT-BACK FACTOR AFTER DIVERGENCE                                 0.2500    
     CUT-BACK FACTOR FOR TOO SLOW CONVERGENCE                         0.5000    
     CUT-BACK FACTOR AFTER TOO MANY EQUILIBRIUM ITERATIONS            0.7500    
     CUT-BACK FACTOR AFTER TOO MANY SEVERE DISCONTINUITY ITERATIONS   0.2500    
     CUT-BACK FACTOR AFTER PROBLEMS IN ELEMENT ASSEMBLY               0.2500    
     INCREASE FACTOR AFTER TWO INCREMENTS THAT CONVERGE QUICKLY        1.500    
     MAX. TIME INCREMENT INCREASE FACTOR ALLOWED                       1.500    
     MAX. TIME INCREMENT INCREASE FACTOR ALLOWED (DYNAMICS)            1.250    
     MAX. TIME INCREMENT INCREASE FACTOR ALLOWED (DIFFUSION)           2.000    
     MINIMUM TIME INCREMENT RATIO FOR EXTRAPOLATION TO OCCUR          0.1000    
     MAX. RATIO OF TIME INCREMENT TO STABILITY LIMIT                   1.000    
     FRACTION OF STABILITY LIMIT FOR NEW TIME INCREMENT               0.9500    
     TIME INCREMENT INCREASE FACTOR BEFORE A TIME POINT                1.000    
     GLOBAL STABILIZATION CONTROL IS NOT USED

          PRINT OF INCREMENT NUMBER, TIME, ETC., EVERY    1  INCREMENTS

     RESTART FILE WILL BE WRITTEN EVERY     1  INCREMENTS

     ONLY THE LATEST INCREMENT WILL BE RETAINED

     THE MAXIMUM NUMBER OF INCREMENTS IN THIS STEP IS                     100

          LARGE DISPLACEMENT THEORY WILL BE USED

     LINEAR EXTRAPOLATION WILL BE USED

     CHARACTERISTIC ELEMENT LENGTH      19.5    

     DETAILS REGARDING ACTUAL SOLUTION WAVEFRONT REQUESTED

     DETAILED OUTPUT OF DIAGNOSTICS TO DATABASE REQUESTED

     PRINT OF INCREMENT NUMBER, TIME, ETC., TO THE MESSAGE FILE EVERY     1  INCREMENTS

     ELEMENT OPERATIONS WILL BE CARRIED OUT IN PARALLEL USING   4 PROCESSORS

     COLLECTING STEP CONSTRAINT INFORMATION FOR OVERCONSTRAINT CHECKS


  INCREMENT     1 STARTS. ATTEMPT NUMBER  1, TIME INCREMENT  0.500    
 
     INITIAL ELEMENT LOAD BALANCE
            PROCESS    1   THREAD     NUMBER OF ELEMENTS
                              1            2039
                              2            1792
                              3            1536
                              4            1956

 ***WARNING: THERE ARE 2 UNCONNECTED REGIONS IN THE MODEL.

 ***NOTE: SFM TYPE SURFACE ELEMENTS USED TO DEFINE CONTACT SURFACES NOT PART OF 
          A RIGID BODY MAY INCREASE THE NUMBER OR UNCONNECTED REGIONS REPORTED.

  NUMBER OF EQUATIONS =     12132     NUMBER OF RHS =    1
  NUMBER OF FLOATING PT. OPERATIONS =  5.50E+08

  USING THE DIRECT SOLVER WITH   4 PROCESSORS

     CHECK POINT   START OF SOLVER    

     CHECK POINT  END OF SOLVER       

       ELAPSED USER TIME (SEC)      =  0.30000    
       ELAPSED SYSTEM TIME (SEC)    =   0.0000    
       ELAPSED TOTAL CPU TIME (SEC) =  0.30000    
       ELAPSED WALLCLOCK TIME (SEC) =          0

                    1 SEVERE DISCONTINUITIES OCCURRED DURING THIS ITERATION.
                    1 POINTS CHANGED FROM OPEN TO CLOSED

               CONVERGENCE CHECKS FOR SEVERE DISCONTINUITY ITERATION     1

   MAX. PENETRATION ERROR 160.296E-03   AT NODE 30178 OF CONTACT PAIR 
   (TIRE-TREAD,ROAD_SURF)
   MAX. CONTACT FORCE ERROR 1.06376E+03 AT NODE 30178 OF CONTACT PAIR 
   (TIRE-TREAD,ROAD_SURF)
          PENETRATION ERROR TOO LARGE COMPARED TO DISPLACEMENT INCREMENT.

 AVERAGE FORCE                       29.5       TIME AVG. FORCE        29.5    
 LARGEST RESIDUAL FORCE             5.103E+04   AT NODE      30178   DOF  3
 LARGEST INCREMENT OF DISP.          1.50       AT NODE      99999   DOF  3
 LARGEST CORRECTION TO DISP.         1.50       AT NODE      99999   DOF  3
          FORCE     EQUILIBRIUM NOT ACHIEVED WITHIN TOLERANCE.

 AVERAGE MOMENT                     1.092E-07   TIME AVG. MOMENT       573.    
                                                (FROM FORCE     FIELD)
 ALL MOMENT    RESIDUALS ARE ZERO
 LARGEST INCREMENT OF ROTATION      4.148E-32   AT NODE          1   DOF  4
 LARGEST CORRECTION TO ROTATION     4.148E-32   AT NODE          1   DOF  4
          THERE IS ZERO MOMENT    EVERYWHERE

 COMPATIBILITY ERRORS:
    TYPE                NUMBER EXCEEDING TOLERANCE  MAXIMUM ERROR        IN ELEMENT
 VOLUMETRIC                          0               -5.884E-12              21041

  NUMBER OF EQUATIONS =     12133     NUMBER OF RHS =    1
  NUMBER OF FLOATING PT. OPERATIONS =  5.59E+08

  USING THE DIRECT SOLVER WITH   4 PROCESSORS

     CHECK POINT   START OF SOLVER    

     CHECK POINT  END OF SOLVER       

       ELAPSED USER TIME (SEC)      =  0.40000    
       ELAPSED SYSTEM TIME (SEC)    =  0.10000    
       ELAPSED TOTAL CPU TIME (SEC) =  0.50000    
       ELAPSED WALLCLOCK TIME (SEC) =          0

                    1 SEVERE DISCONTINUITIES OCCURRED DURING THIS ITERATION.
                    1 POINTS CHANGED FROM SLIPPING TO STICKING

               CONVERGENCE CHECKS FOR SEVERE DISCONTINUITY ITERATION     2


 AVERAGE FORCE                       28.3       TIME AVG. FORCE        28.3    
 LARGEST RESIDUAL FORCE             0.292       AT NODE      32177   DOF  1
 LARGEST INCREMENT OF DISP.          1.50       AT NODE      99999   DOF  3
 LARGEST CORRECTION TO DISP.        0.160       AT NODE      30178   DOF  3
          FORCE     EQUILIBRIUM NOT ACHIEVED WITHIN TOLERANCE.

 AVERAGE MOMENT                     5.124E-11   TIME AVG. MOMENT       551.    
                                                (FROM FORCE     FIELD)
 ALL MOMENT    RESIDUALS ARE ZERO
 LARGEST INCREMENT OF ROTATION      4.148E-32   AT NODE          1   DOF  4
 LARGEST CORRECTION TO ROTATION     2.725E-36   AT NODE          1   DOF  4
          THERE IS ZERO MOMENT    EVERYWHERE

 COMPATIBILITY ERRORS:
    TYPE                NUMBER EXCEEDING TOLERANCE  MAXIMUM ERROR        IN ELEMENT
 VOLUMETRIC                          0               -1.654E-06              28052

  NUMBER OF EQUATIONS =     12133     NUMBER OF RHS =    1
  NUMBER OF FLOATING PT. OPERATIONS =  5.59E+08

  USING THE DIRECT SOLVER WITH   4 PROCESSORS

     CHECK POINT   START OF SOLVER    

     CHECK POINT  END OF SOLVER       

       ELAPSED USER TIME (SEC)      =  0.40000    
       ELAPSED SYSTEM TIME (SEC)    =   0.0000    
       ELAPSED TOTAL CPU TIME (SEC) =  0.40000    
       ELAPSED WALLCLOCK TIME (SEC) =          1

               CONVERGENCE CHECKS FOR EQUILIBRIUM ITERATION     1


 AVERAGE FORCE                       28.6       TIME AVG. FORCE        28.6    
 LARGEST RESIDUAL FORCE            -2.717E-04   AT NODE      30178   DOF  3
 LARGEST INCREMENT OF DISP.          1.50       AT NODE      99999   DOF  3
 LARGEST CORRECTION TO DISP.        2.878E-04   AT NODE      30196   DOF  3
          THE FORCE     EQUILIBRIUM EQUATIONS HAVE CONVERGED

 AVERAGE MOMENT                     5.026E-11   TIME AVG. MOMENT       556.    
                                                (FROM FORCE     FIELD)
 ALL MOMENT    RESIDUALS ARE ZERO
 LARGEST INCREMENT OF ROTATION      4.148E-32   AT NODE          1   DOF  4
 LARGEST CORRECTION TO ROTATION    -8.749E-37   AT NODE          1   DOF  4
          THERE IS ZERO MOMENT    EVERYWHERE

 COMPATIBILITY ERRORS:
    TYPE                NUMBER EXCEEDING TOLERANCE  MAXIMUM ERROR        IN ELEMENT
 VOLUMETRIC                          0               -3.700E-11              31092


  COMPUTING NEW MESH IN ADAPTIVE MESH DOMAIN:  AIR                                                                             

  MESH SMOOTHING SUMMARY:
     TOTAL OF   1 LOAD INCREMENTS AND   10 MESH SWEEPS
     LARGEST DISPLACEMENT    0.19330     AT NODE      13229 DOF  2


 ITERATION SUMMARY FOR THE INCREMENT:   3 TOTAL ITERATIONS, OF WHICH
   2 ARE SEVERE DISCONTINUITY ITERATIONS AND  1 ARE EQUILIBRIUM ITERATIONS.

 TIME INCREMENT COMPLETED  0.500    ,  FRACTION OF STEP COMPLETED  0.500    
 STEP TIME COMPLETED       0.500    ,  TOTAL TIME COMPLETED         1.50    

     RESTART INFORMATION WRITTEN IN STEP   2  AFTER INCREMENT     1


  INCREMENT     2 STARTS. ATTEMPT NUMBER  1, TIME INCREMENT  0.500    

  NUMBER OF EQUATIONS =     12133     NUMBER OF RHS =    1
  NUMBER OF FLOATING PT. OPERATIONS =  5.59E+08

  USING THE DIRECT SOLVER WITH   4 PROCESSORS

     CHECK POINT   START OF SOLVER    

     CHECK POINT  END OF SOLVER       

       ELAPSED USER TIME (SEC)      =  0.30000    
       ELAPSED SYSTEM TIME (SEC)    =  0.10000    
       ELAPSED TOTAL CPU TIME (SEC) =  0.40000    
       ELAPSED WALLCLOCK TIME (SEC) =          0

                    4 SEVERE DISCONTINUITIES OCCURRED DURING THIS ITERATION.
                    4 POINTS CHANGED FROM OPEN TO CLOSED

               CONVERGENCE CHECKS FOR SEVERE DISCONTINUITY ITERATION     1

   MAX. PENETRATION ERROR 691.580E-03   AT NODE 29178 OF CONTACT PAIR 
   (TIRE-TREAD,ROAD_SURF)
   MAX. CONTACT FORCE ERROR 4.56595E+03 AT NODE 29178 OF CONTACT PAIR 
   (TIRE-TREAD,ROAD_SURF)
          PENETRATION ERROR TOO LARGE COMPARED TO DISPLACEMENT INCREMENT.

 AVERAGE FORCE                       35.6       TIME AVG. FORCE        32.1    
 LARGEST RESIDUAL FORCE             2.191E+05   AT NODE      29178   DOF  3
 LARGEST INCREMENT OF DISP.          1.50       AT NODE      30178   DOF  3
 LARGEST CORRECTION TO DISP.         1.34       AT NODE      30178   DOF  3
          FORCE     EQUILIBRIUM NOT ACHIEVED WITHIN TOLERANCE.

 AVERAGE MOMENT                     3.465E+04   TIME AVG. MOMENT      3.465E+04
 ALL MOMENT    RESIDUALS ARE ZERO
 LARGEST INCREMENT OF ROTATION      4.148E-32   AT NODE          1   DOF  4
 LARGEST CORRECTION TO ROTATION     2.064E-36   AT NODE          1   DOF  4
          THE MOMENT    EQUILIBRIUM EQUATIONS HAVE CONVERGED

 COMPATIBILITY ERRORS:
    TYPE                NUMBER EXCEEDING TOLERANCE  MAXIMUM ERROR        IN ELEMENT
 VOLUMETRIC                        238               -1.194E-04              28052

  NUMBER OF EQUATIONS =     12137     NUMBER OF RHS =    1
  NUMBER OF FLOATING PT. OPERATIONS =  5.64E+08

  USING THE DIRECT SOLVER WITH   4 PROCESSORS

     CHECK POINT   START OF SOLVER    

     CHECK POINT  END OF SOLVER       

       ELAPSED USER TIME (SEC)      =  0.40000    
       ELAPSED SYSTEM TIME (SEC)    =  0.10000    
       ELAPSED TOTAL CPU TIME (SEC) =  0.50000    
       ELAPSED WALLCLOCK TIME (SEC) =          1

                    4 SEVERE DISCONTINUITIES OCCURRED DURING THIS ITERATION.
                    2 POINTS CHANGED FROM CLOSED TO OPEN
                    2 POINTS CHANGED FROM SLIPPING TO STICKING

               CONVERGENCE CHECKS FOR SEVERE DISCONTINUITY ITERATION     2

   MAX. CONTACT FORCE ERROR -50.9760      AT NODE 30179 OF CONTACT PAIR 
   (TIRE-TREAD,ROAD_SURF)
          THE ESTIMATED CONTACT FORCE ERROR IS OUTSIDE OF CONVERGENCE TOLERANCES.

 AVERAGE FORCE                       28.1       TIME AVG. FORCE        28.3    
 LARGEST RESIDUAL FORCE              50.7       AT NODE      30179   DOF  3
 LARGEST INCREMENT OF DISP.          1.50       AT NODE      30178   DOF  3
 LARGEST CORRECTION TO DISP.        0.692       AT NODE      29178   DOF  3
          FORCE     EQUILIBRIUM NOT ACHIEVED WITHIN TOLERANCE.

 AVERAGE MOMENT                      18.0       TIME AVG. MOMENT       18.0    
 ALL MOMENT    RESIDUALS ARE ZERO
 LARGEST INCREMENT OF ROTATION      4.147E-32   AT NODE          1   DOF  4
 LARGEST CORRECTION TO ROTATION    -1.010E-35   AT NODE          1   DOF  4
          THE MOMENT    EQUILIBRIUM EQUATIONS HAVE CONVERGED

 COMPATIBILITY ERRORS:
    TYPE                NUMBER EXCEEDING TOLERANCE  MAXIMUM ERROR        IN ELEMENT
 VOLUMETRIC                         28               -2.175E-05              29096

  NUMBER OF EQUATIONS =     12135     NUMBER OF RHS =    1
  NUMBER OF FLOATING PT. OPERATIONS =  5.64E+08

  USING THE DIRECT SOLVER WITH   4 PROCESSORS

     CHECK POINT   START OF SOLVER    

     CHECK POINT  END OF SOLVER       

       ELAPSED USER TIME (SEC)      =  0.40000    
       ELAPSED SYSTEM TIME (SEC)    =   0.0000    
       ELAPSED TOTAL CPU TIME (SEC) =  0.40000    
       ELAPSED WALLCLOCK TIME (SEC) =          0

               CONVERGENCE CHECKS FOR EQUILIBRIUM ITERATION     1


 AVERAGE FORCE                       28.2       TIME AVG. FORCE        28.4    
 LARGEST RESIDUAL FORCE            -0.920       AT NODE      29178   DOF  1
 LARGEST INCREMENT OF DISP.          1.50       AT NODE      30178   DOF  3
 LARGEST CORRECTION TO DISP.        0.343       AT NODE      30179   DOF  3
          FORCE     EQUILIBRIUM NOT ACHIEVED WITHIN TOLERANCE.

 AVERAGE MOMENT                      14.0       TIME AVG. MOMENT       14.0    
 ALL MOMENT    RESIDUALS ARE ZERO
 LARGEST INCREMENT OF ROTATION      4.147E-32   AT NODE          1   DOF  4
 LARGEST CORRECTION TO ROTATION    -2.508E-36   AT NODE      99999   DOF  6
          THE MOMENT    EQUILIBRIUM RESPONSE WAS LINEAR IN THIS INCREMENT

 COMPATIBILITY ERRORS:
    TYPE                NUMBER EXCEEDING TOLERANCE  MAXIMUM ERROR        IN ELEMENT
 VOLUMETRIC                          4               -1.056E-05              30092

  NUMBER OF EQUATIONS =     12135     NUMBER OF RHS =    1
  NUMBER OF FLOATING PT. OPERATIONS =  5.64E+08

  USING THE DIRECT SOLVER WITH   4 PROCESSORS

     CHECK POINT   START OF SOLVER    

     CHECK POINT  END OF SOLVER       

       ELAPSED USER TIME (SEC)      =  0.40000    
       ELAPSED SYSTEM TIME (SEC)    =   0.0000    
       ELAPSED TOTAL CPU TIME (SEC) =  0.40000    
       ELAPSED WALLCLOCK TIME (SEC) =          0

               CONVERGENCE CHECKS FOR EQUILIBRIUM ITERATION     2


 AVERAGE FORCE                       28.5       TIME AVG. FORCE        28.5    
 LARGEST RESIDUAL FORCE            -2.176E-02   AT NODE      30178   DOF  3
 LARGEST INCREMENT OF DISP.          1.50       AT NODE      30178   DOF  3
 LARGEST CORRECTION TO DISP.       -3.250E-03   AT NODE      29178   DOF  1
          THE FORCE     EQUILIBRIUM EQUATIONS HAVE CONVERGED

 AVERAGE MOMENT                      14.0       TIME AVG. MOMENT       14.0    
 ALL MOMENT    RESIDUALS ARE ZERO
 LARGEST INCREMENT OF ROTATION      4.147E-32   AT NODE          1   DOF  4
 LARGEST CORRECTION TO ROTATION    -8.191E-37   AT NODE          1   DOF  4
          THE MOMENT    EQUILIBRIUM EQUATIONS HAVE CONVERGED

 COMPATIBILITY ERRORS:
    TYPE                NUMBER EXCEEDING TOLERANCE  MAXIMUM ERROR        IN ELEMENT
 VOLUMETRIC                          0               -1.930E-09              28096


  COMPUTING NEW MESH IN ADAPTIVE MESH DOMAIN:  AIR                                                                             

  MESH SMOOTHING SUMMARY:
     TOTAL OF   1 LOAD INCREMENTS AND   10 MESH SWEEPS
     LARGEST DISPLACEMENT    0.53322     AT NODE      30235 DOF  3


 ITERATION SUMMARY FOR THE INCREMENT:   4 TOTAL ITERATIONS, OF WHICH
   2 ARE SEVERE DISCONTINUITY ITERATIONS AND  2 ARE EQUILIBRIUM ITERATIONS.

 TIME INCREMENT COMPLETED  0.500    ,  FRACTION OF STEP COMPLETED   1.00    
 STEP TIME COMPLETED        1.00    ,  TOTAL TIME COMPLETED         2.00    

     RESTART INFORMATION WRITTEN IN STEP   2  AFTER INCREMENT     2
1

   Abaqus 2021                                  Date 30-4ÔÂ-2025   Time 15:12:14
   For use by Supplied by Team-SolidSQUAD under license from Dassault Systemes or its subsidiary.

  STEP2                                                                          
 3:  FOOTPRINT (Load controlled)                                                 
 STEP    3     INCREMENT     1     STEP TIME    0.00    


                        S T E P       3     S T A T I C   A N A L Y S I S


          3:  FOOTPRINT (Load controlled)                                                 

     AUTOMATIC TIME CONTROL WITH -
          A SUGGESTED INITIAL TIME INCREMENT OF                0.200    
          AND A TOTAL TIME PERIOD OF                            1.00    
          THE MINIMUM TIME INCREMENT ALLOWED IS                1.000E-05
          THE MAXIMUM TIME INCREMENT ALLOWED IS                 1.00    

     LINEAR EQUATION SOLVER TYPE         DIRECT SPARSE

 CONVERGENCE TOLERANCE PARAMETERS FOR FORCE    
     CRITERION FOR RESIDUAL FORCE     FOR A NONLINEAR PROBLEM          5.000E-03
     CRITERION FOR DISP.    CORRECTION IN A NONLINEAR PROBLEM          1.000E-02
     INIT. VALUE OF TIME AVG. FORCE     IS TIME AVG. FORCE     IN PREVIOUS STEP
     AVERAGE FORCE     IS TIME AVERAGE FORCE    
     ALTERNATE CRIT. FOR RESIDUAL FORCE     FOR A NONLINEAR PROBLEM    2.000E-02
     CRITERION FOR ZERO FORCE     RELATIVE TO TIME AVRG. FORCE         1.000E-05
     CRITERION FOR RESIDUAL FORCE     WHEN THERE IS ZERO FLUX          1.000E-05
     CRITERION FOR DISP.    CORRECTION WHEN THERE IS ZERO FLUX         1.000E-03
     CRITERION FOR RESIDUAL FORCE     FOR A LINEAR INCREMENT           1.000E-08
     FIELD CONVERSION RATIO                                             1.00    
     CRITERION FOR ZERO FORCE     REL. TO TIME AVRG. MAX. FORCE        1.000E-05
     CRITERION FOR ZERO DISP.    RELATIVE TO CHARACTERISTIC LENGTH     1.000E-08

 CONVERGENCE TOLERANCE PARAMETERS FOR MOMENT   
     CRITERION FOR RESIDUAL MOMENT    FOR A NONLINEAR PROBLEM          5.000E-03
     CRITERION FOR ROTATION CORRECTION IN A NONLINEAR PROBLEM          1.000E-02
     INIT. VALUE OF TIME AVG. MOMENT    IS TIME AVG. MOMENT    IN PREVIOUS STEP
     AVERAGE MOMENT    IS TIME AVERAGE MOMENT   
     ALTERNATE CRIT. FOR RESIDUAL MOMENT    FOR A NONLINEAR PROBLEM    2.000E-02
     CRITERION FOR ZERO MOMENT    RELATIVE TO TIME AVRG. MOMENT        1.000E-05
     CRITERION FOR RESIDUAL MOMENT    WHEN THERE IS ZERO FLUX          1.000E-05
     CRITERION FOR ROTATION CORRECTION WHEN THERE IS ZERO FLUX         1.000E-03
     CRITERION FOR RESIDUAL MOMENT    FOR A LINEAR INCREMENT           1.000E-08
     FIELD CONVERSION RATIO                                             1.00    
     CRITERION FOR ZERO MOMENT    REL. TO TIME AVRG. MAX. MOMENT       1.000E-05

     VOLUMETRIC STRAIN COMPATIBILITY TOLERANCE FOR HYBRID SOLIDS       1.000E-05
     AXIAL STRAIN COMPATIBILITY TOLERANCE FOR HYBRID BEAMS             1.000E-05
     TRANS. SHEAR STRAIN COMPATIBILITY TOLERANCE FOR HYBRID BEAMS      1.000E-05
     SOFT CONTACT CONSTRAINT COMPATIBILITY TOLERANCE FOR P>P0          5.000E-03
     SOFT CONTACT CONSTRAINT COMPATIBILITY TOLERANCE FOR P=0.0         0.100    
     CONTACT FORCE ERROR TOLERANCE FOR CONVERT SDI=YES                 1.00    
     DISPLACEMENT COMPATIBILITY TOLERANCE FOR DCOUP ELEMENTS           1.000E-05
     ROTATION COMPATIBILITY TOLERANCE FOR DCOUP ELEMENTS               1.000E-05

 EQUILIBRIUM WILL BE CHECKED FOR SEVERE DISCONTINUITY ITERATIONS

 TIME INCREMENTATION CONTROL PARAMETERS:
     FIRST EQUILIBRIUM ITERATION FOR CONSECUTIVE DIVERGENCE CHECK              4
     EQUILIBRIUM ITERATION AT WHICH LOG. CONVERGENCE RATE CHECK BEGINS         8
     EQUILIBRIUM ITERATION AFTER WHICH ALTERNATE RESIDUAL IS USED              9
     MAXIMUM EQUILIBRIUM ITERATIONS ALLOWED                                   16
     EQUILIBRIUM ITERATION COUNT FOR CUT-BACK IN NEXT INCREMENT               10
     MAXIMUM EQUILIB. ITERS IN TWO INCREMENTS FOR TIME INCREMENT INCREASE      4
     MAXIMUM ITERATIONS FOR SEVERE DISCONTINUITIES                            50
     MAXIMUM ATTEMPTS ALLOWED IN AN INCREMENT                                  5
     MAXIMUM DISCON. ITERS IN TWO INCREMENTS FOR TIME INCREMENT INCREASE      50
     MAXIMUM CONTACT AUGMENTATIONS FOR *SURFACE BEHAVIOR,AUGMENTED LAGRANGE   50
     CUT-BACK FACTOR AFTER DIVERGENCE                                 0.2500    
     CUT-BACK FACTOR FOR TOO SLOW CONVERGENCE                         0.5000    
     CUT-BACK FACTOR AFTER TOO MANY EQUILIBRIUM ITERATIONS            0.7500    
     CUT-BACK FACTOR AFTER TOO MANY SEVERE DISCONTINUITY ITERATIONS   0.2500    
     CUT-BACK FACTOR AFTER PROBLEMS IN ELEMENT ASSEMBLY               0.2500    
     INCREASE FACTOR AFTER TWO INCREMENTS THAT CONVERGE QUICKLY        1.500    
     MAX. TIME INCREMENT INCREASE FACTOR ALLOWED                       1.500    
     MAX. TIME INCREMENT INCREASE FACTOR ALLOWED (DYNAMICS)            1.250    
     MAX. TIME INCREMENT INCREASE FACTOR ALLOWED (DIFFUSION)           2.000    
     MINIMUM TIME INCREMENT RATIO FOR EXTRAPOLATION TO OCCUR          0.1000    
     MAX. RATIO OF TIME INCREMENT TO STABILITY LIMIT                   1.000    
     FRACTION OF STABILITY LIMIT FOR NEW TIME INCREMENT               0.9500    
     TIME INCREMENT INCREASE FACTOR BEFORE A TIME POINT                1.000    
     GLOBAL STABILIZATION CONTROL IS NOT USED

          PRINT OF INCREMENT NUMBER, TIME, ETC., EVERY    1  INCREMENTS

     RESTART FILE WILL BE WRITTEN EVERY     1  INCREMENTS

     ONLY THE LATEST INCREMENT WILL BE RETAINED

     THE MAXIMUM NUMBER OF INCREMENTS IN THIS STEP IS                     100

          LARGE DISPLACEMENT THEORY WILL BE USED

     LINEAR EXTRAPOLATION WILL BE USED

     CHARACTERISTIC ELEMENT LENGTH      19.5    

     DETAILS REGARDING ACTUAL SOLUTION WAVEFRONT REQUESTED

     DETAILED OUTPUT OF DIAGNOSTICS TO DATABASE REQUESTED

     PRINT OF INCREMENT NUMBER, TIME, ETC., TO THE MESSAGE FILE EVERY     1  INCREMENTS

     ELEMENT OPERATIONS WILL BE CARRIED OUT IN PARALLEL USING   4 PROCESSORS

     COLLECTING STEP CONSTRAINT INFORMATION FOR OVERCONSTRAINT CHECKS


  INCREMENT     1 STARTS. ATTEMPT NUMBER  1, TIME INCREMENT  0.200    
 
     INITIAL ELEMENT LOAD BALANCE
            PROCESS    1   THREAD     NUMBER OF ELEMENTS
                              1            1792
                              2            1444
                              3            2551
                              4            1536

  NUMBER OF EQUATIONS =     12135     NUMBER OF RHS =    1
  NUMBER OF FLOATING PT. OPERATIONS =  5.64E+08

  USING THE DIRECT SOLVER WITH   4 PROCESSORS

     CHECK POINT   START OF SOLVER    

     CHECK POINT  END OF SOLVER       

       ELAPSED USER TIME (SEC)      =  0.40000    
       ELAPSED SYSTEM TIME (SEC)    =  0.10000    
       ELAPSED TOTAL CPU TIME (SEC) =  0.50000    
       ELAPSED WALLCLOCK TIME (SEC) =          0

                   20 SEVERE DISCONTINUITIES OCCURRED DURING THIS ITERATION.
                   18 POINTS CHANGED FROM OPEN TO CLOSED
                    2 POINTS CHANGED FROM STICKING TO SLIPPING

               CONVERGENCE CHECKS FOR SEVERE DISCONTINUITY ITERATION     1

   MAX. PENETRATION ERROR 1.43103     AT NODE 28178 OF CONTACT PAIR 
   (TIRE-TREAD,ROAD_SURF)
   MAX. CONTACT FORCE ERROR 9.35307E+03 AT NODE 28178 OF CONTACT PAIR 
   (TIRE-TREAD,ROAD_SURF)
          PENETRATION ERROR TOO LARGE COMPARED TO DISPLACEMENT INCREMENT.

 AVERAGE FORCE                       104.       TIME AVG. FORCE        104.    
 LARGEST RESIDUAL FORCE            -4.417E+06   AT NODE      99999   DOF  3
 LARGEST INCREMENT OF DISP.          4.44       AT NODE      29178   DOF  3
 LARGEST CORRECTION TO DISP.         4.44       AT NODE      29178   DOF  3
          FORCE     EQUILIBRIUM NOT ACHIEVED WITHIN TOLERANCE.

 AVERAGE MOMENT                     3.801E+06   TIME AVG. MOMENT      3.801E+06
 ALL MOMENT    RESIDUALS ARE ZERO
 LARGEST INCREMENT OF ROTATION      4.147E-32   AT NODE          1   DOF  4
 LARGEST CORRECTION TO ROTATION     4.147E-32   AT NODE          1   DOF  4
          THE MOMENT    EQUILIBRIUM EQUATIONS HAVE CONVERGED

 COMPATIBILITY ERRORS:
    TYPE                NUMBER EXCEEDING TOLERANCE  MAXIMUM ERROR        IN ELEMENT
 VOLUMETRIC                       1108               -3.313E-03              28052

  NUMBER OF EQUATIONS =     12153     NUMBER OF RHS =    1
  NUMBER OF FLOATING PT. OPERATIONS =  5.68E+08

  USING THE DIRECT SOLVER WITH   4 PROCESSORS

     CHECK POINT   START OF SOLVER    

     CHECK POINT  END OF SOLVER       

       ELAPSED USER TIME (SEC)      =  0.40000    
       ELAPSED SYSTEM TIME (SEC)    =  0.10000    
       ELAPSED TOTAL CPU TIME (SEC) =  0.50000    
       ELAPSED WALLCLOCK TIME (SEC) =          0

                    8 SEVERE DISCONTINUITIES OCCURRED DURING THIS ITERATION.
                    8 POINTS CHANGED FROM CLOSED TO OPEN

               CONVERGENCE CHECKS FOR SEVERE DISCONTINUITY ITERATION     2

   MAX. CONTACT FORCE ERROR -43.1416      AT NODE 32247 OF CONTACT PAIR 
   (TIRE-TREAD,ROAD_SURF)
          THE ESTIMATED CONTACT FORCE ERROR IS OUTSIDE OF CONVERGENCE TOLERANCES.

 AVERAGE FORCE                       28.2       TIME AVG. FORCE        28.2    
 LARGEST RESIDUAL FORCE             -258.       AT NODE      99999   DOF  3
 LARGEST INCREMENT OF DISP.          4.42       AT NODE      30177   DOF  3
 LARGEST CORRECTION TO DISP.         1.17       AT NODE      28178   DOF  3
          FORCE     EQUILIBRIUM NOT ACHIEVED WITHIN TOLERANCE.

 AVERAGE MOMENT                     1.072E+03   TIME AVG. MOMENT      1.072E+03
 ALL MOMENT    RESIDUALS ARE ZERO
 LARGEST INCREMENT OF ROTATION      4.143E-32   AT NODE          1   DOF  4
 LARGEST CORRECTION TO ROTATION    -5.880E-35   AT NODE      99999   DOF  6
          THE MOMENT    EQUILIBRIUM EQUATIONS HAVE CONVERGED

 COMPATIBILITY ERRORS:
    TYPE                NUMBER EXCEEDING TOLERANCE  MAXIMUM ERROR        IN ELEMENT
 VOLUMETRIC                        178                2.797E-04              29038

  NUMBER OF EQUATIONS =     12145     NUMBER OF RHS =    1
  NUMBER OF FLOATING PT. OPERATIONS =  5.67E+08

  USING THE DIRECT SOLVER WITH   4 PROCESSORS

     CHECK POINT   START OF SOLVER    

     CHECK POINT  END OF SOLVER       

       ELAPSED USER TIME (SEC)      =  0.40000    
       ELAPSED SYSTEM TIME (SEC)    =   0.0000    
       ELAPSED TOTAL CPU TIME (SEC) =  0.40000    
       ELAPSED WALLCLOCK TIME (SEC) =          0

                    2 SEVERE DISCONTINUITIES OCCURRED DURING THIS ITERATION.
                    2 POINTS CHANGED FROM CLOSED TO OPEN

               CONVERGENCE CHECKS FOR SEVERE DISCONTINUITY ITERATION     3

   MAX. CONTACT FORCE ERROR -3.02764     AT NODE 30180 OF CONTACT PAIR 
   (TIRE-TREAD,ROAD_SURF)
          THE CONTACT CONSTRAINT ERRORS ARE WITHIN THE TOLERANCES.

 AVERAGE FORCE                       28.3       TIME AVG. FORCE        28.3    
 LARGEST RESIDUAL FORCE             -20.6       AT NODE      31177   DOF  1
 LARGEST INCREMENT OF DISP.          4.17       AT NODE      30177   DOF  3
 LARGEST CORRECTION TO DISP.       -0.257       AT NODE      30253   DOF  3
          FORCE     EQUILIBRIUM NOT ACHIEVED WITHIN TOLERANCE.

 AVERAGE MOMENT                      951.       TIME AVG. MOMENT       951.    
 ALL MOMENT    RESIDUALS ARE ZERO
 LARGEST INCREMENT OF ROTATION      4.143E-32   AT NODE          1   DOF  4
 LARGEST CORRECTION TO ROTATION     7.730E-35   AT NODE          1   DOF  6
          THE MOMENT    EQUILIBRIUM EQUATIONS HAVE CONVERGED

 COMPATIBILITY ERRORS:
    TYPE                NUMBER EXCEEDING TOLERANCE  MAXIMUM ERROR        IN ELEMENT
 VOLUMETRIC                         52               -8.612E-05              31052

  NUMBER OF EQUATIONS =     12143     NUMBER OF RHS =    1
  NUMBER OF FLOATING PT. OPERATIONS =  5.67E+08

  USING THE DIRECT SOLVER WITH   4 PROCESSORS

     CHECK POINT   START OF SOLVER    

     CHECK POINT  END OF SOLVER       

       ELAPSED USER TIME (SEC)      =  0.40000    
       ELAPSED SYSTEM TIME (SEC)    =  0.10000    
       ELAPSED TOTAL CPU TIME (SEC) =  0.50000    
       ELAPSED WALLCLOCK TIME (SEC) =          0

               CONVERGENCE CHECKS FOR EQUILIBRIUM ITERATION     1


 AVERAGE FORCE                       28.3       TIME AVG. FORCE        28.3    
 LARGEST RESIDUAL FORCE             0.755       AT NODE      99999   DOF  3
 LARGEST INCREMENT OF DISP.          4.19       AT NODE      30177   DOF  3
 LARGEST CORRECTION TO DISP.        2.377E-02   AT NODE      30248   DOF  2
          FORCE     EQUILIBRIUM NOT ACHIEVED WITHIN TOLERANCE.

 AVERAGE MOMENT                      945.       TIME AVG. MOMENT       945.    
 ALL MOMENT    RESIDUALS ARE ZERO
 LARGEST INCREMENT OF ROTATION      4.143E-32   AT NODE          1   DOF  4
 LARGEST CORRECTION TO ROTATION     1.005E-35   AT NODE      99999   DOF  6
          THE MOMENT    EQUILIBRIUM RESPONSE WAS LINEAR IN THIS INCREMENT

 COMPATIBILITY ERRORS:
    TYPE                NUMBER EXCEEDING TOLERANCE  MAXIMUM ERROR        IN ELEMENT
 VOLUMETRIC                          0               -3.459E-07              30094

  NUMBER OF EQUATIONS =     12143     NUMBER OF RHS =    1
  NUMBER OF FLOATING PT. OPERATIONS =  5.67E+08

  USING THE DIRECT SOLVER WITH   4 PROCESSORS

     CHECK POINT   START OF SOLVER    

     CHECK POINT  END OF SOLVER       

       ELAPSED USER TIME (SEC)      =  0.50000    
       ELAPSED SYSTEM TIME (SEC)    =   0.0000    
       ELAPSED TOTAL CPU TIME (SEC) =  0.50000    
       ELAPSED WALLCLOCK TIME (SEC) =          0

               CONVERGENCE CHECKS FOR EQUILIBRIUM ITERATION     2


 AVERAGE FORCE                       28.4       TIME AVG. FORCE        28.4    
 LARGEST RESIDUAL FORCE             2.529E-02   AT NODE      99999   DOF  3
 LARGEST INCREMENT OF DISP.          4.19       AT NODE      30177   DOF  3
 LARGEST CORRECTION TO DISP.        8.589E-04   AT NODE      30177   DOF  3
          THE FORCE     EQUILIBRIUM EQUATIONS HAVE CONVERGED

 AVERAGE MOMENT                      945.       TIME AVG. MOMENT       945.    
 ALL MOMENT    RESIDUALS ARE ZERO
 LARGEST INCREMENT OF ROTATION      4.143E-32   AT NODE          1   DOF  4
 LARGEST CORRECTION TO ROTATION     1.176E-37   AT NODE      99999   DOF  6
          THE MOMENT    EQUILIBRIUM EQUATIONS HAVE CONVERGED

 COMPATIBILITY ERRORS:
    TYPE                NUMBER EXCEEDING TOLERANCE  MAXIMUM ERROR        IN ELEMENT
 VOLUMETRIC                          0               -3.213E-10              30093


  COMPUTING NEW MESH IN ADAPTIVE MESH DOMAIN:  AIR                                                                             

  MESH SMOOTHING SUMMARY:
     TOTAL OF   1 LOAD INCREMENTS AND   10 MESH SWEEPS
     LARGEST DISPLACEMENT     2.0913     AT NODE      30235 DOF  3


 ITERATION SUMMARY FOR THE INCREMENT:   5 TOTAL ITERATIONS, OF WHICH
   3 ARE SEVERE DISCONTINUITY ITERATIONS AND  2 ARE EQUILIBRIUM ITERATIONS.

 TIME INCREMENT COMPLETED  0.200    ,  FRACTION OF STEP COMPLETED  0.200    
 STEP TIME COMPLETED       0.200    ,  TOTAL TIME COMPLETED         2.20    

     RESTART INFORMATION WRITTEN IN STEP   3  AFTER INCREMENT     1


  INCREMENT     2 STARTS. ATTEMPT NUMBER  1, TIME INCREMENT  0.200    

  NUMBER OF EQUATIONS =     12143     NUMBER OF RHS =    1
  NUMBER OF FLOATING PT. OPERATIONS =  5.67E+08

  USING THE DIRECT SOLVER WITH   4 PROCESSORS

     CHECK POINT   START OF SOLVER    

     CHECK POINT  END OF SOLVER       

       ELAPSED USER TIME (SEC)      =  0.30000    
       ELAPSED SYSTEM TIME (SEC)    =  0.10000    
       ELAPSED TOTAL CPU TIME (SEC) =  0.40000    
       ELAPSED WALLCLOCK TIME (SEC) =          1

                   22 SEVERE DISCONTINUITIES OCCURRED DURING THIS ITERATION.
                   22 POINTS CHANGED FROM OPEN TO CLOSED

               CONVERGENCE CHECKS FOR SEVERE DISCONTINUITY ITERATION     1

   MAX. PENETRATION ERROR 1.69880     AT NODE 29248 OF CONTACT PAIR 
   (TIRE-TREAD,ROAD_SURF)
   MAX. CONTACT FORCE ERROR 12.0228E+03  AT NODE 29248 OF CONTACT PAIR 
   (TIRE-TREAD,ROAD_SURF)
          PENETRATION ERROR TOO LARGE COMPARED TO DISPLACEMENT INCREMENT.

 AVERAGE FORCE                       160.       TIME AVG. FORCE        94.0    
 LARGEST RESIDUAL FORCE            -7.883E+06   AT NODE      99999   DOF  3
 LARGEST INCREMENT OF DISP.          5.29       AT NODE      30196   DOF  3
 LARGEST CORRECTION TO DISP.         1.60       AT NODE      32178   DOF  3
          FORCE     EQUILIBRIUM NOT ACHIEVED WITHIN TOLERANCE.

 AVERAGE MOMENT                     5.764E+06   TIME AVG. MOMENT      2.883E+06
 ALL MOMENT    RESIDUALS ARE ZERO
 LARGEST INCREMENT OF ROTATION      4.139E-32   AT NODE          1   DOF  4
 LARGEST CORRECTION TO ROTATION    -7.267E-35   AT NODE      99999   DOF  6
          THE MOMENT    EQUILIBRIUM EQUATIONS HAVE CONVERGED

 COMPATIBILITY ERRORS:
    TYPE                NUMBER EXCEEDING TOLERANCE  MAXIMUM ERROR        IN ELEMENT
 VOLUMETRIC                        298               -8.187E-04              32092

  NUMBER OF EQUATIONS =     12165     NUMBER OF RHS =    1
  NUMBER OF FLOATING PT. OPERATIONS =  5.68E+08

  USING THE DIRECT SOLVER WITH   4 PROCESSORS

     CHECK POINT   START OF SOLVER    

     CHECK POINT  END OF SOLVER       

       ELAPSED USER TIME (SEC)      =  0.40000    
       ELAPSED SYSTEM TIME (SEC)    =   0.0000    
       ELAPSED TOTAL CPU TIME (SEC) =  0.40000    
       ELAPSED WALLCLOCK TIME (SEC) =          0

                    6 SEVERE DISCONTINUITIES OCCURRED DURING THIS ITERATION.
                    6 POINTS CHANGED FROM CLOSED TO OPEN

               CONVERGENCE CHECKS FOR SEVERE DISCONTINUITY ITERATION     2

   MAX. CONTACT FORCE ERROR -234.358       AT NODE 27248 OF CONTACT PAIR 
   (TIRE-TREAD,ROAD_SURF)
          THE ESTIMATED CONTACT FORCE ERROR IS OUTSIDE OF CONVERGENCE TOLERANCES.

 AVERAGE FORCE                       28.9       TIME AVG. FORCE        28.6    
 LARGEST RESIDUAL FORCE             -764.       AT NODE      99999   DOF  3
 LARGEST INCREMENT OF DISP.          4.11       AT NODE      30265   DOF  3
 LARGEST CORRECTION TO DISP.        -1.39       AT NODE      30177   DOF  3
          FORCE     EQUILIBRIUM NOT ACHIEVED WITHIN TOLERANCE.

 AVERAGE MOMENT                     1.581E+03   TIME AVG. MOMENT      1.263E+03
 ALL MOMENT    RESIDUALS ARE ZERO
 LARGEST INCREMENT OF ROTATION      4.138E-32   AT NODE          1   DOF  4
 LARGEST CORRECTION TO ROTATION    -5.036E-35   AT NODE          1   DOF  6
          THE MOMENT    EQUILIBRIUM EQUATIONS HAVE CONVERGED

 COMPATIBILITY ERRORS:
    TYPE                NUMBER EXCEEDING TOLERANCE  MAXIMUM ERROR        IN ELEMENT
 VOLUMETRIC                        336               -2.429E-03              30053

  NUMBER OF EQUATIONS =     12159     NUMBER OF RHS =    1
  NUMBER OF FLOATING PT. OPERATIONS =  5.68E+08

  USING THE DIRECT SOLVER WITH   4 PROCESSORS

     CHECK POINT   START OF SOLVER    

     CHECK POINT  END OF SOLVER       

       ELAPSED USER TIME (SEC)      =  0.50000    
       ELAPSED SYSTEM TIME (SEC)    =   0.0000    
       ELAPSED TOTAL CPU TIME (SEC) =  0.50000    
       ELAPSED WALLCLOCK TIME (SEC) =          0

                    4 SEVERE DISCONTINUITIES OCCURRED DURING THIS ITERATION.
                    4 POINTS CHANGED FROM CLOSED TO OPEN

               CONVERGENCE CHECKS FOR SEVERE DISCONTINUITY ITERATION     3

   MAX. CONTACT FORCE ERROR -57.5744      AT NODE 32248 OF CONTACT PAIR 
   (TIRE-TREAD,ROAD_SURF)
          THE ESTIMATED CONTACT FORCE ERROR IS OUTSIDE OF CONVERGENCE TOLERANCES.

 AVERAGE FORCE                       28.5       TIME AVG. FORCE        28.4    
 LARGEST RESIDUAL FORCE             -314.       AT NODE      32177   DOF  1
 LARGEST INCREMENT OF DISP.          4.06       AT NODE      30236   DOF  3
 LARGEST CORRECTION TO DISP.        0.825       AT NODE      27248   DOF  3
          FORCE     EQUILIBRIUM NOT ACHIEVED WITHIN TOLERANCE.

 AVERAGE MOMENT                     1.349E+03   TIME AVG. MOMENT      1.147E+03
 ALL MOMENT    RESIDUALS ARE ZERO
 LARGEST INCREMENT OF ROTATION      4.138E-32   AT NODE          1   DOF  4
 LARGEST CORRECTION TO ROTATION     6.891E-35   AT NODE          1   DOF  6
          THE MOMENT    EQUILIBRIUM EQUATIONS HAVE CONVERGED

 COMPATIBILITY ERRORS:
    TYPE                NUMBER EXCEEDING TOLERANCE  MAXIMUM ERROR        IN ELEMENT
 VOLUMETRIC                        298               -1.030E-03              32045

  NUMBER OF EQUATIONS =     12155     NUMBER OF RHS =    1
  NUMBER OF FLOATING PT. OPERATIONS =  5.68E+08

  USING THE DIRECT SOLVER WITH   4 PROCESSORS

     CHECK POINT   START OF SOLVER    

     CHECK POINT  END OF SOLVER       

       ELAPSED USER TIME (SEC)      =  0.40000    
       ELAPSED SYSTEM TIME (SEC)    =  0.10000    
       ELAPSED TOTAL CPU TIME (SEC) =  0.50000    
       ELAPSED WALLCLOCK TIME (SEC) =          0

               CONVERGENCE CHECKS FOR EQUILIBRIUM ITERATION     1


 AVERAGE FORCE                       28.4       TIME AVG. FORCE        28.4    
 LARGEST RESIDUAL FORCE              7.67       AT NODE      32252   DOF  1
 LARGEST INCREMENT OF DISP.          4.06       AT NODE      30236   DOF  3
 LARGEST CORRECTION TO DISP.        0.208       AT NODE      32248   DOF  3
          FORCE     EQUILIBRIUM NOT ACHIEVED WITHIN TOLERANCE.

 AVERAGE MOMENT                     1.213E+03   TIME AVG. MOMENT      1.079E+03
 ALL MOMENT    RESIDUALS ARE ZERO
 LARGEST INCREMENT OF ROTATION      4.138E-32   AT NODE          1   DOF  4
 LARGEST CORRECTION TO ROTATION    -6.151E-35   AT NODE      99999   DOF  6
          THE MOMENT    EQUILIBRIUM RESPONSE WAS LINEAR IN THIS INCREMENT

 COMPATIBILITY ERRORS:
    TYPE                NUMBER EXCEEDING TOLERANCE  MAXIMUM ERROR        IN ELEMENT
 VOLUMETRIC                         18               -3.638E-05              31053

  NUMBER OF EQUATIONS =     12155     NUMBER OF RHS =    1
  NUMBER OF FLOATING PT. OPERATIONS =  5.68E+08

  USING THE DIRECT SOLVER WITH   4 PROCESSORS

     CHECK POINT   START OF SOLVER    

     CHECK POINT  END OF SOLVER       

       ELAPSED USER TIME (SEC)      =  0.30000    
       ELAPSED SYSTEM TIME (SEC)    =   0.0000    
       ELAPSED TOTAL CPU TIME (SEC) =  0.30000    
       ELAPSED WALLCLOCK TIME (SEC) =          0

               CONVERGENCE CHECKS FOR EQUILIBRIUM ITERATION     2


 AVERAGE FORCE                       28.5       TIME AVG. FORCE        28.4    
 LARGEST RESIDUAL FORCE             0.504       AT NODE      99999   DOF  3
 LARGEST INCREMENT OF DISP.          4.06       AT NODE      30236   DOF  3
 LARGEST CORRECTION TO DISP.        1.162E-02   AT NODE      30248   DOF  2
          FORCE     EQUILIBRIUM NOT ACHIEVED WITHIN TOLERANCE.

 AVERAGE MOMENT                     1.214E+03   TIME AVG. MOMENT      1.079E+03
 ALL MOMENT    RESIDUALS ARE ZERO
 LARGEST INCREMENT OF ROTATION      4.138E-32   AT NODE          1   DOF  4
 LARGEST CORRECTION TO ROTATION     1.104E-35   AT NODE      99999   DOF  6
          THE MOMENT    EQUILIBRIUM EQUATIONS HAVE CONVERGED

 COMPATIBILITY ERRORS:
    TYPE                NUMBER EXCEEDING TOLERANCE  MAXIMUM ERROR        IN ELEMENT
 VOLUMETRIC                          0               -1.433E-07              30098

  NUMBER OF EQUATIONS =     12155     NUMBER OF RHS =    1
  NUMBER OF FLOATING PT. OPERATIONS =  5.68E+08

  USING THE DIRECT SOLVER WITH   4 PROCESSORS

     CHECK POINT   START OF SOLVER    

     CHECK POINT  END OF SOLVER       

       ELAPSED USER TIME (SEC)      =  0.30000    
       ELAPSED SYSTEM TIME (SEC)    =  0.10000    
       ELAPSED TOTAL CPU TIME (SEC) =  0.40000    
       ELAPSED WALLCLOCK TIME (SEC) =          1

               CONVERGENCE CHECKS FOR EQUILIBRIUM ITERATION     3


 AVERAGE FORCE                       28.5       TIME AVG. FORCE        28.4    
 LARGEST RESIDUAL FORCE            -8.386E-03   AT NODE      31178   DOF  1
 LARGEST INCREMENT OF DISP.          4.06       AT NODE      30236   DOF  3
 LARGEST CORRECTION TO DISP.        1.839E-04   AT NODE      31178   DOF  1
          THE FORCE     EQUILIBRIUM EQUATIONS HAVE CONVERGED

 AVERAGE MOMENT                     1.214E+03   TIME AVG. MOMENT      1.080E+03
 ALL MOMENT    RESIDUALS ARE ZERO
 LARGEST INCREMENT OF ROTATION      4.138E-32   AT NODE          1   DOF  4
 LARGEST CORRECTION TO ROTATION     1.312E-37   AT NODE      99999   DOF  6
          THE MOMENT    EQUILIBRIUM EQUATIONS HAVE CONVERGED

 COMPATIBILITY ERRORS:
    TYPE                NUMBER EXCEEDING TOLERANCE  MAXIMUM ERROR        IN ELEMENT
 VOLUMETRIC                          0               -3.896E-11              29098


  COMPUTING NEW MESH IN ADAPTIVE MESH DOMAIN:  AIR                                                                             

  MESH SMOOTHING SUMMARY:
     TOTAL OF   1 LOAD INCREMENTS AND   10 MESH SWEEPS
     LARGEST DISPLACEMENT    0.56563     AT NODE      30234 DOF  3

          TIME INCREMENT MAY NOW INCREASE TO    0.300    

 ITERATION SUMMARY FOR THE INCREMENT:   6 TOTAL ITERATIONS, OF WHICH
   3 ARE SEVERE DISCONTINUITY ITERATIONS AND  3 ARE EQUILIBRIUM ITERATIONS.

 TIME INCREMENT COMPLETED  0.200    ,  FRACTION OF STEP COMPLETED  0.400    
 STEP TIME COMPLETED       0.400    ,  TOTAL TIME COMPLETED         2.40    

     RESTART INFORMATION WRITTEN IN STEP   3  AFTER INCREMENT     2


  INCREMENT     3 STARTS. ATTEMPT NUMBER  1, TIME INCREMENT  0.300    

  NUMBER OF EQUATIONS =     12155     NUMBER OF RHS =    1
  NUMBER OF FLOATING PT. OPERATIONS =  5.68E+08

  USING THE DIRECT SOLVER WITH   4 PROCESSORS

     CHECK POINT   START OF SOLVER    

     CHECK POINT  END OF SOLVER       

       ELAPSED USER TIME (SEC)      =  0.40000    
       ELAPSED SYSTEM TIME (SEC)    =  0.10000    
       ELAPSED TOTAL CPU TIME (SEC) =  0.50000    
       ELAPSED WALLCLOCK TIME (SEC) =          0

                   14 SEVERE DISCONTINUITIES OCCURRED DURING THIS ITERATION.
                   14 POINTS CHANGED FROM OPEN TO CLOSED

               CONVERGENCE CHECKS FOR SEVERE DISCONTINUITY ITERATION     1

   MAX. PENETRATION ERROR 1.26463     AT NODE 32180 OF CONTACT PAIR 
   (TIRE-TREAD,ROAD_SURF)
   MAX. CONTACT FORCE ERROR 8.83570E+03 AT NODE 32180 OF CONTACT PAIR 
   (TIRE-TREAD,ROAD_SURF)
          PENETRATION ERROR TOO LARGE COMPARED TO DISPLACEMENT INCREMENT.

 AVERAGE FORCE                       92.8       TIME AVG. FORCE        49.9    
 LARGEST RESIDUAL FORCE            -3.817E+06   AT NODE      99999   DOF  3
 LARGEST INCREMENT OF DISP.          5.71       AT NODE      28177   DOF  3
 LARGEST CORRECTION TO DISP.         1.72       AT NODE      27178   DOF  3
          FORCE     EQUILIBRIUM NOT ACHIEVED WITHIN TOLERANCE.

 AVERAGE MOMENT                     2.896E+06   TIME AVG. MOMENT      9.661E+05
 ALL MOMENT    RESIDUALS ARE ZERO
 LARGEST INCREMENT OF ROTATION      4.132E-32   AT NODE          1   DOF  4
 LARGEST CORRECTION TO ROTATION    -2.076E-32   AT NODE          1   DOF  4
          THE MOMENT    EQUILIBRIUM EQUATIONS HAVE CONVERGED

 COMPATIBILITY ERRORS:
    TYPE                NUMBER EXCEEDING TOLERANCE  MAXIMUM ERROR        IN ELEMENT
 VOLUMETRIC                        372               -6.162E-04              33092

  NUMBER OF EQUATIONS =     12169     NUMBER OF RHS =    1
  NUMBER OF FLOATING PT. OPERATIONS =  5.69E+08

  USING THE DIRECT SOLVER WITH   4 PROCESSORS

     CHECK POINT   START OF SOLVER    

     CHECK POINT  END OF SOLVER       

       ELAPSED USER TIME (SEC)      =  0.50000    
       ELAPSED SYSTEM TIME (SEC)    =  0.10000    
       ELAPSED TOTAL CPU TIME (SEC) =  0.60000    
       ELAPSED WALLCLOCK TIME (SEC) =          0

                    2 SEVERE DISCONTINUITIES OCCURRED DURING THIS ITERATION.
                    2 POINTS CHANGED FROM CLOSED TO OPEN

               CONVERGENCE CHECKS FOR SEVERE DISCONTINUITY ITERATION     2

   MAX. CONTACT FORCE ERROR -13.5176      AT NODE 33248 OF CONTACT PAIR 
   (TIRE-TREAD,ROAD_SURF)
          THE CONTACT CONSTRAINT ERRORS ARE WITHIN THE TOLERANCES.

 AVERAGE FORCE                       29.2       TIME AVG. FORCE        28.7    
 LARGEST RESIDUAL FORCE              183.       AT NODE      29177   DOF  1
 LARGEST INCREMENT OF DISP.          5.01       AT NODE      30213   DOF  3
 LARGEST CORRECTION TO DISP.       -0.977       AT NODE      32177   DOF  3
          FORCE     EQUILIBRIUM NOT ACHIEVED WITHIN TOLERANCE.

 AVERAGE MOMENT                     1.897E+03   TIME AVG. MOMENT      1.352E+03
 ALL MOMENT    RESIDUALS ARE ZERO
 LARGEST INCREMENT OF ROTATION      4.130E-32   AT NODE          1   DOF  4
 LARGEST CORRECTION TO ROTATION     2.309E-34   AT NODE          1   DOF  6
          THE MOMENT    EQUILIBRIUM EQUATIONS HAVE CONVERGED

 COMPATIBILITY ERRORS:
    TYPE                NUMBER EXCEEDING TOLERANCE  MAXIMUM ERROR        IN ELEMENT
 VOLUMETRIC                        196               -9.552E-04              31045

  NUMBER OF EQUATIONS =     12167     NUMBER OF RHS =    1
  NUMBER OF FLOATING PT. OPERATIONS =  5.69E+08

  USING THE DIRECT SOLVER WITH   4 PROCESSORS

     CHECK POINT   START OF SOLVER    

     CHECK POINT  END OF SOLVER       

       ELAPSED USER TIME (SEC)      =  0.50000    
       ELAPSED SYSTEM TIME (SEC)    =  0.10000    
       ELAPSED TOTAL CPU TIME (SEC) =  0.60000    
       ELAPSED WALLCLOCK TIME (SEC) =          0

               CONVERGENCE CHECKS FOR EQUILIBRIUM ITERATION     1

   MAX. PENETRATION ERROR 113.687E-15   AT NODE 32178 OF CONTACT PAIR 
   (TIRE-TREAD,ROAD_SURF)
   MAX. CONTACT FORCE ERROR 710.358E-12   AT NODE 32178 OF CONTACT PAIR 
   (TIRE-TREAD,ROAD_SURF)
          THE CONTACT CONSTRAINTS HAVE CONVERGED.

 AVERAGE FORCE                       28.9       TIME AVG. FORCE        28.6    
 LARGEST RESIDUAL FORCE             -1.93       AT NODE      33177   DOF  1
 LARGEST INCREMENT OF DISP.          5.01       AT NODE      30213   DOF  3
 LARGEST CORRECTION TO DISP.        8.009E-02   AT NODE      28180   DOF  2
          FORCE     EQUILIBRIUM NOT ACHIEVED WITHIN TOLERANCE.

 AVERAGE MOMENT                     1.871E+03   TIME AVG. MOMENT      1.343E+03
 ALL MOMENT    RESIDUALS ARE ZERO
 LARGEST INCREMENT OF ROTATION      4.131E-32   AT NODE          1   DOF  4
 LARGEST CORRECTION TO ROTATION    -1.555E-34   AT NODE          1   DOF  6
          THE MOMENT    EQUILIBRIUM RESPONSE WAS LINEAR IN THIS INCREMENT

 COMPATIBILITY ERRORS:
    TYPE                NUMBER EXCEEDING TOLERANCE  MAXIMUM ERROR        IN ELEMENT
 VOLUMETRIC                          0               -9.597E-06              32097

  NUMBER OF EQUATIONS =     12167     NUMBER OF RHS =    1
  NUMBER OF FLOATING PT. OPERATIONS =  5.69E+08

  USING THE DIRECT SOLVER WITH   4 PROCESSORS

     CHECK POINT   START OF SOLVER    

     CHECK POINT  END OF SOLVER       

       ELAPSED USER TIME (SEC)      =  0.50000    
       ELAPSED SYSTEM TIME (SEC)    =  0.10000    
       ELAPSED TOTAL CPU TIME (SEC) =  0.60000    
       ELAPSED WALLCLOCK TIME (SEC) =          0

               CONVERGENCE CHECKS FOR EQUILIBRIUM ITERATION     2


 AVERAGE FORCE                       29.0       TIME AVG. FORCE        28.6    
 LARGEST RESIDUAL FORCE             8.916E-02   AT NODE      99999   DOF  3
 LARGEST INCREMENT OF DISP.          5.01       AT NODE      30213   DOF  3
 LARGEST CORRECTION TO DISP.        2.558E-03   AT NODE      31248   DOF  2
          THE FORCE     EQUILIBRIUM EQUATIONS HAVE CONVERGED

 AVERAGE MOMENT                     1.870E+03   TIME AVG. MOMENT      1.343E+03
 ALL MOMENT    RESIDUALS ARE ZERO
 LARGEST INCREMENT OF ROTATION      4.131E-32   AT NODE          1   DOF  4
 LARGEST CORRECTION TO ROTATION     5.895E-36   AT NODE          1   DOF  6
          THE MOMENT    EQUILIBRIUM EQUATIONS HAVE CONVERGED

 COMPATIBILITY ERRORS:
    TYPE                NUMBER EXCEEDING TOLERANCE  MAXIMUM ERROR        IN ELEMENT
 VOLUMETRIC                          0               -3.895E-09              29094


  COMPUTING NEW MESH IN ADAPTIVE MESH DOMAIN:  AIR                                                                             

  MESH SMOOTHING SUMMARY:
     TOTAL OF   1 LOAD INCREMENTS AND   10 MESH SWEEPS
     LARGEST DISPLACEMENT    0.35630     AT NODE      27291 DOF  3


 ITERATION SUMMARY FOR THE INCREMENT:   4 TOTAL ITERATIONS, OF WHICH
   2 ARE SEVERE DISCONTINUITY ITERATIONS AND  2 ARE EQUILIBRIUM ITERATIONS.

 TIME INCREMENT COMPLETED  0.300    ,  FRACTION OF STEP COMPLETED  0.700    
 STEP TIME COMPLETED       0.700    ,  TOTAL TIME COMPLETED         2.70    

     RESTART INFORMATION WRITTEN IN STEP   3  AFTER INCREMENT     3


  INCREMENT     4 STARTS. ATTEMPT NUMBER  1, TIME INCREMENT  0.300    

  NUMBER OF EQUATIONS =     12167     NUMBER OF RHS =    1
  NUMBER OF FLOATING PT. OPERATIONS =  5.69E+08

  USING THE DIRECT SOLVER WITH   4 PROCESSORS

     CHECK POINT   START OF SOLVER    

     CHECK POINT  END OF SOLVER       

       ELAPSED USER TIME (SEC)      =  0.40000    
       ELAPSED SYSTEM TIME (SEC)    =  0.10000    
       ELAPSED TOTAL CPU TIME (SEC) =  0.50000    
       ELAPSED WALLCLOCK TIME (SEC) =          0

                   16 SEVERE DISCONTINUITIES OCCURRED DURING THIS ITERATION.
                   10 POINTS CHANGED FROM OPEN TO CLOSED
                    6 POINTS CHANGED FROM CLOSED TO OPEN

               CONVERGENCE CHECKS FOR SEVERE DISCONTINUITY ITERATION     1

   MAX. PENETRATION ERROR 1.13623     AT NODE 27180 OF CONTACT PAIR 
   (TIRE-TREAD,ROAD_SURF)
   MAX. CONTACT FORCE ERROR 7.92068E+03 AT NODE 27180 OF CONTACT PAIR 
   (TIRE-TREAD,ROAD_SURF)
          PENETRATION ERROR TOO LARGE COMPARED TO DISPLACEMENT INCREMENT.

 AVERAGE FORCE                       53.4       TIME AVG. FORCE        34.8    
 LARGEST RESIDUAL FORCE            -1.409E+06   AT NODE      99999   DOF  3
 LARGEST INCREMENT OF DISP.          4.91       AT NODE      32253   DOF  3
 LARGEST CORRECTION TO DISP.         1.67       AT NODE      26178   DOF  3
          FORCE     EQUILIBRIUM NOT ACHIEVED WITHIN TOLERANCE.

 AVERAGE MOMENT                     1.195E+06   TIME AVG. MOMENT      2.999E+05
 ALL MOMENT    RESIDUALS ARE ZERO
 LARGEST INCREMENT OF ROTATION      4.123E-32   AT NODE          1   DOF  4
 LARGEST CORRECTION TO ROTATION    -7.338E-34   AT NODE      99999   DOF  6
          THE MOMENT    EQUILIBRIUM EQUATIONS HAVE CONVERGED

 COMPATIBILITY ERRORS:
    TYPE                NUMBER EXCEEDING TOLERANCE  MAXIMUM ERROR        IN ELEMENT
 VOLUMETRIC                        484               -1.090E-03              32045

  NUMBER OF EQUATIONS =     12171     NUMBER OF RHS =    1
  NUMBER OF FLOATING PT. OPERATIONS =  5.69E+08

  USING THE DIRECT SOLVER WITH   4 PROCESSORS

     CHECK POINT   START OF SOLVER    

     CHECK POINT  END OF SOLVER       

       ELAPSED USER TIME (SEC)      =  0.50000    
       ELAPSED SYSTEM TIME (SEC)    =  0.10000    
       ELAPSED TOTAL CPU TIME (SEC) =  0.60000    
       ELAPSED WALLCLOCK TIME (SEC) =          0

                    4 SEVERE DISCONTINUITIES OCCURRED DURING THIS ITERATION.
                    4 POINTS CHANGED FROM CLOSED TO OPEN

               CONVERGENCE CHECKS FOR SEVERE DISCONTINUITY ITERATION     2

   MAX. CONTACT FORCE ERROR -11.8062      AT NODE 26180 OF CONTACT PAIR 
   (TIRE-TREAD,ROAD_SURF)
          THE CONTACT CONSTRAINT ERRORS ARE WITHIN THE TOLERANCES.

 AVERAGE FORCE                       29.7       TIME AVG. FORCE        28.9    
 LARGEST RESIDUAL FORCE              92.7       AT NODE      33252   DOF  1
 LARGEST INCREMENT OF DISP.          4.77       AT NODE      29274   DOF  3
 LARGEST CORRECTION TO DISP.        0.872       AT NODE      27180   DOF  3
          FORCE     EQUILIBRIUM NOT ACHIEVED WITHIN TOLERANCE.

 AVERAGE MOMENT                     3.302E+03   TIME AVG. MOMENT      1.833E+03
 ALL MOMENT    RESIDUALS ARE ZERO
 LARGEST INCREMENT OF ROTATION      4.121E-32   AT NODE          1   DOF  4
 LARGEST CORRECTION TO ROTATION    -1.257E-33   AT NODE          1   DOF  6
          THE MOMENT    EQUILIBRIUM EQUATIONS HAVE CONVERGED

 COMPATIBILITY ERRORS:
    TYPE                NUMBER EXCEEDING TOLERANCE  MAXIMUM ERROR        IN ELEMENT
 VOLUMETRIC                        180               -4.329E-04              32053

  NUMBER OF EQUATIONS =     12167     NUMBER OF RHS =    1
  NUMBER OF FLOATING PT. OPERATIONS =  5.69E+08

  USING THE DIRECT SOLVER WITH   4 PROCESSORS

     CHECK POINT   START OF SOLVER    

     CHECK POINT  END OF SOLVER       

       ELAPSED USER TIME (SEC)      =  0.50000    
       ELAPSED SYSTEM TIME (SEC)    =  0.10000    
       ELAPSED TOTAL CPU TIME (SEC) =  0.60000    
       ELAPSED WALLCLOCK TIME (SEC) =          0

               CONVERGENCE CHECKS FOR EQUILIBRIUM ITERATION     1


 AVERAGE FORCE                       29.7       TIME AVG. FORCE        28.9    
 LARGEST RESIDUAL FORCE              1.42       AT NODE      28184   DOF  1
 LARGEST INCREMENT OF DISP.          4.77       AT NODE      29274   DOF  3
 LARGEST CORRECTION TO DISP.        9.858E-02   AT NODE      27180   DOF  2
          FORCE     EQUILIBRIUM NOT ACHIEVED WITHIN TOLERANCE.

 AVERAGE MOMENT                     3.270E+03   TIME AVG. MOMENT      1.825E+03
 ALL MOMENT    RESIDUALS ARE ZERO
 LARGEST INCREMENT OF ROTATION      4.121E-32   AT NODE          1   DOF  4
 LARGEST CORRECTION TO ROTATION     5.292E-34   AT NODE          1   DOF  6
          THE MOMENT    EQUILIBRIUM RESPONSE WAS LINEAR IN THIS INCREMENT

 COMPATIBILITY ERRORS:
    TYPE                NUMBER EXCEEDING TOLERANCE  MAXIMUM ERROR        IN ELEMENT
 VOLUMETRIC                          2               -1.183E-05              26093

  NUMBER OF EQUATIONS =     12167     NUMBER OF RHS =    1
  NUMBER OF FLOATING PT. OPERATIONS =  5.69E+08

  USING THE DIRECT SOLVER WITH   4 PROCESSORS

     CHECK POINT   START OF SOLVER    

     CHECK POINT  END OF SOLVER       

       ELAPSED USER TIME (SEC)      =  0.40000    
       ELAPSED SYSTEM TIME (SEC)    =  0.10000    
       ELAPSED TOTAL CPU TIME (SEC) =  0.50000    
       ELAPSED WALLCLOCK TIME (SEC) =          0

               CONVERGENCE CHECKS FOR EQUILIBRIUM ITERATION     2


 AVERAGE FORCE                       29.8       TIME AVG. FORCE        28.9    
 LARGEST RESIDUAL FORCE             0.152       AT NODE      99999   DOF  3
 LARGEST INCREMENT OF DISP.          4.77       AT NODE      29274   DOF  3
 LARGEST CORRECTION TO DISP.       -3.083E-03   AT NODE      27180   DOF  2
          FORCE     EQUILIBRIUM NOT ACHIEVED WITHIN TOLERANCE.

 AVERAGE MOMENT                     3.269E+03   TIME AVG. MOMENT      1.825E+03
 ALL MOMENT    RESIDUALS ARE ZERO
 LARGEST INCREMENT OF ROTATION      4.121E-32   AT NODE          1   DOF  4
 LARGEST CORRECTION TO ROTATION    -2.323E-35   AT NODE          1   DOF  6
          THE MOMENT    EQUILIBRIUM EQUATIONS HAVE CONVERGED

 COMPATIBILITY ERRORS:
    TYPE                NUMBER EXCEEDING TOLERANCE  MAXIMUM ERROR        IN ELEMENT
 VOLUMETRIC                          0               -7.524E-09              27094

  NUMBER OF EQUATIONS =     12167     NUMBER OF RHS =    1
  NUMBER OF FLOATING PT. OPERATIONS =  5.69E+08

  USING THE DIRECT SOLVER WITH   4 PROCESSORS

     CHECK POINT   START OF SOLVER    

     CHECK POINT  END OF SOLVER       

       ELAPSED USER TIME (SEC)      =  0.40000    
       ELAPSED SYSTEM TIME (SEC)    =  0.10000    
       ELAPSED TOTAL CPU TIME (SEC) =  0.50000    
       ELAPSED WALLCLOCK TIME (SEC) =          0

               CONVERGENCE CHECKS FOR EQUILIBRIUM ITERATION     3


 AVERAGE FORCE                       29.8       TIME AVG. FORCE        28.9    
 LARGEST RESIDUAL FORCE             1.953E-03   AT NODE      27178   DOF  1
 LARGEST INCREMENT OF DISP.          4.77       AT NODE      29274   DOF  3
 LARGEST CORRECTION TO DISP.       -9.645E-05   AT NODE      27178   DOF  1
          THE FORCE     EQUILIBRIUM EQUATIONS HAVE CONVERGED

 AVERAGE MOMENT                     3.270E+03   TIME AVG. MOMENT      1.825E+03
 ALL MOMENT    RESIDUALS ARE ZERO
 LARGEST INCREMENT OF ROTATION      4.121E-32   AT NODE          1   DOF  4
 LARGEST CORRECTION TO ROTATION     1.685E-36   AT NODE      99999   DOF  6
          THE MOMENT    EQUILIBRIUM EQUATIONS HAVE CONVERGED

 COMPATIBILITY ERRORS:
    TYPE                NUMBER EXCEEDING TOLERANCE  MAXIMUM ERROR        IN ELEMENT
 VOLUMETRIC                          0               -4.796E-12              26092


  COMPUTING NEW MESH IN ADAPTIVE MESH DOMAIN:  AIR                                                                             

  MESH SMOOTHING SUMMARY:
     TOTAL OF   1 LOAD INCREMENTS AND   10 MESH SWEEPS
     LARGEST DISPLACEMENT    0.35638     AT NODE      34245 DOF  3


 ITERATION SUMMARY FOR THE INCREMENT:   5 TOTAL ITERATIONS, OF WHICH
   2 ARE SEVERE DISCONTINUITY ITERATIONS AND  3 ARE EQUILIBRIUM ITERATIONS.

 TIME INCREMENT COMPLETED  0.300    ,  FRACTION OF STEP COMPLETED   1.00    
 STEP TIME COMPLETED        1.00    ,  TOTAL TIME COMPLETED         3.00    

     RESTART INFORMATION WRITTEN IN STEP   3  AFTER INCREMENT     4


          THE ANALYSIS HAS BEEN COMPLETED



     ANALYSIS SUMMARY:
     TOTAL OF          7  INCREMENTS
                       0  CUTBACKS IN AUTOMATIC INCREMENTATION
                      29  ITERATIONS INCLUDING CONTACT ITERATIONS IF PRESENT
                      29  PASSES THROUGH THE EQUATION SOLVER OF WHICH 
                      29  INVOLVE MATRIX DECOMPOSITION, INCLUDING
                       0  DECOMPOSITION(S) OF THE MASS MATRIX
                       1  REORDERING OF EQUATIONS TO MINIMIZE WAVEFRONT
                       0  ADDITIONAL RESIDUAL EVALUATIONS FOR LINE SEARCHES
                       0  ADDITIONAL OPERATOR EVALUATIONS FOR LINE SEARCHES
                      52  WARNING MESSAGES DURING USER INPUT PROCESSING
                       2  WARNING MESSAGES DURING ANALYSIS
                       0  ANALYSIS WARNINGS ARE NUMERICAL PROBLEM MESSAGES
                       0  ANALYSIS WARNINGS ARE NEGATIVE EIGENVALUE MESSAGES
                       0  ERROR MESSAGES



     JOB TIME SUMMARY
       USER TIME (SEC)      =   33.700    
       SYSTEM TIME (SEC)    =   3.2000    
       TOTAL CPU TIME (SEC) =   36.900    
       WALLCLOCK TIME (SEC) =         15
